/*---------------------------------------------------------------------------*\
  =========                 |
  \\      /  F ield         | OpenFOAM: The Open Source CFD Toolbox
   \\    /   O peration     | Website:  https://openfoam.org
    \\  /    A nd           | Version:  10
     \\/     M anipulation  |
\*---------------------------------------------------------------------------*/
Build  : 10-0347120b3b9d
Exec   : icoFoam
Date   : Oct 23 2022
Time   : 15:48:05
Host   : "LAPTOP-LUDAA94B"
PID    : 1934
I/O    : uncollated
Case   : /home/sagar_tejani/Github_OpenFoam/Openfoam-tutorials/small_pipe_low_viscocity
nProcs : 1
sigFpe : Enabling floating point exception trapping (FOAM_SIGFPE).
fileModificationChecking : Monitoring run-time modified files using timeStampMaster (fileModificationSkew 10)
allowSystemOperations : Allowing user-supplied system call operations

// * * * * * * * * * * * * * * * * * * * * * * * * * * * * * * * * * * * * * //
Create time

Create mesh for time = 0

Reading physicalProperties

Reading field p

Reading field U

Reading/calculating face flux field phi


Starting time loop

Time = 0.001s

Courant Number mean: 0.12 max: 0.289142
smoothSolver:  Solving for Uy, Initial residual = 0, Final residual = 0, No Iterations 0
smoothSolver:  Solving for Uz, Initial residual = 1, Final residual = 5.41479e-07, No Iterations 3
DICPCG:  Solving for p, Initial residual = 1, Final residual = 0.048715, No Iterations 45
time step continuity errors : sum local = 1.18873e-08, global = 1.0842e-19, cumulative = 1.0842e-19
DICPCG:  Solving for p, Initial residual = 0.0252975, Final residual = 7.88005e-07, No Iterations 59
time step continuity errors : sum local = 1.34355e-12, global = -1.59592e-18, cumulative = -1.4875e-18
ExecutionTime = 0.015625 s  ClockTime = 0 s

Time = 0.002s

Courant Number mean: 0.120001 max: 0.289189
smoothSolver:  Solving for Uy, Initial residual = 0.215801, Final residual = 1.08683e-06, No Iterations 3
smoothSolver:  Solving for Uz, Initial residual = 0.295542, Final residual = 7.26027e-06, No Iterations 2
DICPCG:  Solving for p, Initial residual = 0.0369328, Final residual = 0.00131206, No Iterations 46
time step continuity errors : sum local = 2.23924e-09, global = -8.32789e-20, cumulative = -1.57078e-18
DICPCG:  Solving for p, Initial residual = 0.00368437, Final residual = 6.72687e-07, No Iterations 56
time step continuity errors : sum local = 1.29273e-12, global = 1.76413e-19, cumulative = -1.39437e-18
ExecutionTime = 0.03125 s  ClockTime = 0 s

Time = 0.003s

Courant Number mean: 0.120003 max: 0.289237
smoothSolver:  Solving for Uy, Initial residual = 0.129039, Final residual = 5.97638e-07, No Iterations 3
smoothSolver:  Solving for Uz, Initial residual = 0.181637, Final residual = 4.50266e-06, No Iterations 2
DICPCG:  Solving for p, Initial residual = 0.0154903, Final residual = 0.000714024, No Iterations 43
time step continuity errors : sum local = 1.38452e-09, global = -1.46671e-18, cumulative = -2.86108e-18
DICPCG:  Solving for p, Initial residual = 0.00173454, Final residual = 7.51145e-07, No Iterations 52
time step continuity errors : sum local = 1.5202e-12, global = -2.93107e-19, cumulative = -3.15418e-18
ExecutionTime = 0.03125 s  ClockTime = 0 s

Time = 0.004s

Courant Number mean: 0.120005 max: 0.289272
smoothSolver:  Solving for Uy, Initial residual = 0.0896279, Final residual = 3.68511e-07, No Iterations 3
smoothSolver:  Solving for Uz, Initial residual = 0.129429, Final residual = 3.20188e-06, No Iterations 2
DICPCG:  Solving for p, Initial residual = 0.0147425, Final residual = 0.000609456, No Iterations 43
time step continuity errors : sum local = 1.24896e-09, global = 5.3064e-19, cumulative = -2.62355e-18
DICPCG:  Solving for p, Initial residual = 0.00152438, Final residual = 8.70126e-07, No Iterations 50
time step continuity errors : sum local = 1.77334e-12, global = -4.34795e-19, cumulative = -3.05834e-18
ExecutionTime = 0.03125 s  ClockTime = 0 s

Time = 0.005s

Courant Number mean: 0.120007 max: 0.289292
smoothSolver:  Solving for Uy, Initial residual = 0.0674823, Final residual = 2.4282e-07, No Iterations 3
smoothSolver:  Solving for Uz, Initial residual = 0.0994947, Final residual = 2.44106e-06, No Iterations 2
DICPCG:  Solving for p, Initial residual = 0.0141, Final residual = 0.000476955, No Iterations 43
time step continuity errors : sum local = 9.75919e-10, global = -3.43996e-19, cumulative = -3.40234e-18
DICPCG:  Solving for p, Initial residual = 0.00140137, Final residual = 7.88335e-07, No Iterations 53
time step continuity errors : sum local = 1.59452e-12, global = -2.86745e-19, cumulative = -3.68908e-18
ExecutionTime = 0.03125 s  ClockTime = 0 s

Time = 0.006s

Courant Number mean: 0.120009 max: 0.289298
smoothSolver:  Solving for Uy, Initial residual = 0.0535633, Final residual = 7.85685e-06, No Iterations 2
smoothSolver:  Solving for Uz, Initial residual = 0.0802608, Final residual = 1.93738e-06, No Iterations 2
DICPCG:  Solving for p, Initial residual = 0.0133207, Final residual = 0.000464162, No Iterations 43
time step continuity errors : sum local = 9.41233e-10, global = 6.38843e-20, cumulative = -3.6252e-18
DICPCG:  Solving for p, Initial residual = 0.00138112, Final residual = 7.77512e-07, No Iterations 53
time step continuity errors : sum local = 1.56673e-12, global = 6.93908e-19, cumulative = -2.93129e-18
ExecutionTime = 0.03125 s  ClockTime = 0 s

Time = 0.007s

Courant Number mean: 0.120011 max: 0.289308
smoothSolver:  Solving for Uy, Initial residual = 0.04417, Final residual = 6.58617e-06, No Iterations 2
smoothSolver:  Solving for Uz, Initial residual = 0.0669671, Final residual = 1.57856e-06, No Iterations 2
DICPCG:  Solving for p, Initial residual = 0.0125258, Final residual = 0.000428173, No Iterations 43
time step continuity errors : sum local = 8.6336e-10, global = -2.1713e-19, cumulative = -3.14842e-18
DICPCG:  Solving for p, Initial residual = 0.00132113, Final residual = 6.62766e-07, No Iterations 53
time step continuity errors : sum local = 1.33086e-12, global = -3.95207e-19, cumulative = -3.54363e-18
ExecutionTime = 0.046875 s  ClockTime = 0 s

Time = 0.008s

Courant Number mean: 0.120012 max: 0.289322
smoothSolver:  Solving for Uy, Initial residual = 0.0375046, Final residual = 5.66116e-06, No Iterations 2
smoothSolver:  Solving for Uz, Initial residual = 0.0573111, Final residual = 1.31006e-06, No Iterations 2
DICPCG:  Solving for p, Initial residual = 0.0118917, Final residual = 0.000358006, No Iterations 43
time step continuity errors : sum local = 7.19345e-10, global = -5.72987e-19, cumulative = -4.11661e-18
DICPCG:  Solving for p, Initial residual = 0.00122333, Final residual = 7.11998e-07, No Iterations 52
time step continuity errors : sum local = 1.43161e-12, global = 1.89769e-19, cumulative = -3.92684e-18
ExecutionTime = 0.046875 s  ClockTime = 0 s

Time = 0.009s

Courant Number mean: 0.120014 max: 0.289333
smoothSolver:  Solving for Uy, Initial residual = 0.0326286, Final residual = 4.96888e-06, No Iterations 2
smoothSolver:  Solving for Uz, Initial residual = 0.0500279, Final residual = 1.10361e-06, No Iterations 2
DICPCG:  Solving for p, Initial residual = 0.0113389, Final residual = 0.000501671, No Iterations 42
time step continuity errors : sum local = 1.00584e-09, global = 3.22877e-19, cumulative = -3.60397e-18
DICPCG:  Solving for p, Initial residual = 0.00130411, Final residual = 7.74843e-07, No Iterations 51
time step continuity errors : sum local = 1.55736e-12, global = 4.33692e-19, cumulative = -3.17028e-18
ExecutionTime = 0.046875 s  ClockTime = 0 s

Time = 0.01s

Courant Number mean: 0.120015 max: 0.289344
smoothSolver:  Solving for Uy, Initial residual = 0.0289443, Final residual = 4.43326e-06, No Iterations 2
smoothSolver:  Solving for Uz, Initial residual = 0.0443794, Final residual = 9.40062e-07, No Iterations 2
DICPCG:  Solving for p, Initial residual = 0.0110222, Final residual = 0.000520851, No Iterations 41
time step continuity errors : sum local = 1.04476e-09, global = -6.12816e-19, cumulative = -3.78309e-18
DICPCG:  Solving for p, Initial residual = 0.0012549, Final residual = 8.70337e-07, No Iterations 51
time step continuity errors : sum local = 1.75031e-12, global = -1.32322e-18, cumulative = -5.10631e-18
ExecutionTime = 0.046875 s  ClockTime = 0 s

Time = 0.011s

Courant Number mean: 0.120017 max: 0.289356
smoothSolver:  Solving for Uy, Initial residual = 0.0260899, Final residual = 3.9741e-06, No Iterations 2
smoothSolver:  Solving for Uz, Initial residual = 0.0399011, Final residual = 8.08192e-07, No Iterations 2
DICPCG:  Solving for p, Initial residual = 0.010842, Final residual = 0.000517586, No Iterations 40
time step continuity errors : sum local = 1.0462e-09, global = -1.14019e-18, cumulative = -6.24651e-18
DICPCG:  Solving for p, Initial residual = 0.00120248, Final residual = 7.64631e-07, No Iterations 49
time step continuity errors : sum local = 1.5481e-12, global = 3.78359e-19, cumulative = -5.86815e-18
ExecutionTime = 0.046875 s  ClockTime = 0 s

Time = 0.012s

Courant Number mean: 0.120018 max: 0.289366
smoothSolver:  Solving for Uy, Initial residual = 0.0238043, Final residual = 3.5728e-06, No Iterations 2
smoothSolver:  Solving for Uz, Initial residual = 0.0362709, Final residual = 7.00688e-07, No Iterations 2
DICPCG:  Solving for p, Initial residual = 0.0105454, Final residual = 0.000516333, No Iterations 39
time step continuity errors : sum local = 1.06415e-09, global = -4.23009e-19, cumulative = -6.29116e-18
DICPCG:  Solving for p, Initial residual = 0.00115492, Final residual = 7.12545e-07, No Iterations 49
time step continuity errors : sum local = 1.4549e-12, global = 8.43773e-19, cumulative = -5.44738e-18
ExecutionTime = 0.046875 s  ClockTime = 0 s

Time = 0.013s

Courant Number mean: 0.12002 max: 0.289376
smoothSolver:  Solving for Uy, Initial residual = 0.0219229, Final residual = 3.22001e-06, No Iterations 2
smoothSolver:  Solving for Uz, Initial residual = 0.0332716, Final residual = 6.16116e-07, No Iterations 2
DICPCG:  Solving for p, Initial residual = 0.0103116, Final residual = 0.000448627, No Iterations 30
time step continuity errors : sum local = 9.31561e-10, global = 1.30876e-19, cumulative = -5.31651e-18
DICPCG:  Solving for p, Initial residual = 0.00105193, Final residual = 9.44849e-07, No Iterations 50
time step continuity errors : sum local = 1.93727e-12, global = 4.37198e-19, cumulative = -4.87931e-18
ExecutionTime = 0.0625 s  ClockTime = 0 s

Time = 0.014s

Courant Number mean: 0.120021 max: 0.289385
smoothSolver:  Solving for Uy, Initial residual = 0.0203628, Final residual = 2.89962e-06, No Iterations 2
smoothSolver:  Solving for Uz, Initial residual = 0.0307512, Final residual = 5.50786e-07, No Iterations 2
DICPCG:  Solving for p, Initial residual = 0.0101469, Final residual = 0.000440976, No Iterations 18
time step continuity errors : sum local = 9.80834e-10, global = 6.96012e-19, cumulative = -4.1833e-18
DICPCG:  Solving for p, Initial residual = 0.000983393, Final residual = 7.81676e-07, No Iterations 51
time step continuity errors : sum local = 1.61394e-12, global = 7.81335e-19, cumulative = -3.40196e-18
ExecutionTime = 0.0625 s  ClockTime = 0 s

Time = 0.015s

Courant Number mean: 0.120022 max: 0.289393
smoothSolver:  Solving for Uy, Initial residual = 0.019078, Final residual = 2.60606e-06, No Iterations 2
smoothSolver:  Solving for Uz, Initial residual = 0.0286023, Final residual = 4.97017e-07, No Iterations 2
DICPCG:  Solving for p, Initial residual = 0.00994515, Final residual = 0.000437208, No Iterations 18
time step continuity errors : sum local = 9.31996e-10, global = -3.65936e-19, cumulative = -3.7679e-18
DICPCG:  Solving for p, Initial residual = 0.000952275, Final residual = 9.00753e-07, No Iterations 49
time step continuity errors : sum local = 1.86876e-12, global = 8.90595e-19, cumulative = -2.8773e-18
ExecutionTime = 0.0625 s  ClockTime = 0 s

Time = 0.016s

Courant Number mean: 0.120024 max: 0.289401
smoothSolver:  Solving for Uy, Initial residual = 0.0180092, Final residual = 2.34676e-06, No Iterations 2
smoothSolver:  Solving for Uz, Initial residual = 0.0267499, Final residual = 4.50713e-07, No Iterations 2
DICPCG:  Solving for p, Initial residual = 0.00985364, Final residual = 0.000468115, No Iterations 18
time step continuity errors : sum local = 1.01414e-09, global = 3.44624e-19, cumulative = -2.53268e-18
DICPCG:  Solving for p, Initial residual = 0.00096868, Final residual = 7.44022e-07, No Iterations 50
time step continuity errors : sum local = 1.56327e-12, global = -1.63588e-18, cumulative = -4.16855e-18
ExecutionTime = 0.0625 s  ClockTime = 0 s

Time = 0.017s

Courant Number mean: 0.120025 max: 0.28941
smoothSolver:  Solving for Uy, Initial residual = 0.0170992, Final residual = 2.12276e-06, No Iterations 2
smoothSolver:  Solving for Uz, Initial residual = 0.0251275, Final residual = 4.13502e-07, No Iterations 2
DICPCG:  Solving for p, Initial residual = 0.0100494, Final residual = 0.000365925, No Iterations 19
time step continuity errors : sum local = 8.86544e-10, global = -1.57605e-19, cumulative = -4.32616e-18
DICPCG:  Solving for p, Initial residual = 0.00085007, Final residual = 8.86062e-07, No Iterations 50
time step continuity errors : sum local = 1.86255e-12, global = -2.18382e-20, cumulative = -4.348e-18
ExecutionTime = 0.0625 s  ClockTime = 0 s

Time = 0.018s

Courant Number mean: 0.120027 max: 0.289419
smoothSolver:  Solving for Uy, Initial residual = 0.0162662, Final residual = 2.01598e-06, No Iterations 2
smoothSolver:  Solving for Uz, Initial residual = 0.0236817, Final residual = 3.89425e-07, No Iterations 2
DICPCG:  Solving for p, Initial residual = 0.0102968, Final residual = 0.000458443, No Iterations 20
time step continuity errors : sum local = 1.16162e-09, global = -6.23454e-19, cumulative = -4.97145e-18
DICPCG:  Solving for p, Initial residual = 0.000926745, Final residual = 9.43354e-07, No Iterations 50
time step continuity errors : sum local = 1.97957e-12, global = 3.17754e-19, cumulative = -4.6537e-18
ExecutionTime = 0.0625 s  ClockTime = 0 s

Time = 0.019s

Courant Number mean: 0.120028 max: 0.289427
smoothSolver:  Solving for Uy, Initial residual = 0.015483, Final residual = 1.97855e-06, No Iterations 2
smoothSolver:  Solving for Uz, Initial residual = 0.0223792, Final residual = 3.65685e-07, No Iterations 2
DICPCG:  Solving for p, Initial residual = 0.0104506, Final residual = 0.000461972, No Iterations 41
time step continuity errors : sum local = 9.68485e-10, global = -3.90083e-19, cumulative = -5.04378e-18
DICPCG:  Solving for p, Initial residual = 0.000943684, Final residual = 6.34087e-07, No Iterations 50
time step continuity errors : sum local = 1.33392e-12, global = -1.60366e-20, cumulative = -5.05982e-18
ExecutionTime = 0.0625 s  ClockTime = 0 s

Time = 0.02s

Courant Number mean: 0.12003 max: 0.289435
smoothSolver:  Solving for Uy, Initial residual = 0.0147411, Final residual = 1.93068e-06, No Iterations 2
smoothSolver:  Solving for Uz, Initial residual = 0.0211954, Final residual = 3.43188e-07, No Iterations 2
DICPCG:  Solving for p, Initial residual = 0.0104614, Final residual = 0.000452646, No Iterations 32
time step continuity errors : sum local = 9.49366e-10, global = 1.62608e-19, cumulative = -4.89721e-18
DICPCG:  Solving for p, Initial residual = 0.000935035, Final residual = 6.11234e-07, No Iterations 50
time step continuity errors : sum local = 1.30161e-12, global = 5.65666e-20, cumulative = -4.84064e-18
ExecutionTime = 0.078125 s  ClockTime = 0 s

Time = 0.021s

Courant Number mean: 0.120031 max: 0.289442
smoothSolver:  Solving for Uy, Initial residual = 0.014045, Final residual = 1.8724e-06, No Iterations 2
smoothSolver:  Solving for Uz, Initial residual = 0.0201094, Final residual = 3.22155e-07, No Iterations 2
DICPCG:  Solving for p, Initial residual = 0.0103986, Final residual = 0.000399887, No Iterations 41
time step continuity errors : sum local = 8.49801e-10, global = 8.21204e-19, cumulative = -4.01944e-18
DICPCG:  Solving for p, Initial residual = 0.000874273, Final residual = 8.0172e-07, No Iterations 50
time step continuity errors : sum local = 1.6966e-12, global = -6.99192e-20, cumulative = -4.08936e-18
ExecutionTime = 0.078125 s  ClockTime = 0 s

Time = 0.022s

Courant Number mean: 0.120033 max: 0.289449
smoothSolver:  Solving for Uy, Initial residual = 0.013388, Final residual = 1.81125e-06, No Iterations 2
smoothSolver:  Solving for Uz, Initial residual = 0.0191077, Final residual = 3.02154e-07, No Iterations 2
DICPCG:  Solving for p, Initial residual = 0.0103381, Final residual = 0.000385962, No Iterations 41
time step continuity errors : sum local = 8.25759e-10, global = 4.33738e-19, cumulative = -3.65562e-18
DICPCG:  Solving for p, Initial residual = 0.000861208, Final residual = 7.49198e-07, No Iterations 50
time step continuity errors : sum local = 1.58365e-12, global = 8.64439e-19, cumulative = -2.79118e-18
ExecutionTime = 0.078125 s  ClockTime = 0 s

Time = 0.023s

Courant Number mean: 0.120034 max: 0.289455
smoothSolver:  Solving for Uy, Initial residual = 0.0127658, Final residual = 1.73889e-06, No Iterations 2
smoothSolver:  Solving for Uz, Initial residual = 0.0181806, Final residual = 2.8431e-07, No Iterations 2
DICPCG:  Solving for p, Initial residual = 0.0104766, Final residual = 0.000434534, No Iterations 41
time step continuity errors : sum local = 9.35878e-10, global = -5.12158e-19, cumulative = -3.30334e-18
DICPCG:  Solving for p, Initial residual = 0.000901506, Final residual = 6.7277e-07, No Iterations 50
time step continuity errors : sum local = 1.43238e-12, global = -4.00016e-19, cumulative = -3.70336e-18
ExecutionTime = 0.078125 s  ClockTime = 0 s

Time = 0.024s

Courant Number mean: 0.120035 max: 0.28946
smoothSolver:  Solving for Uy, Initial residual = 0.0122056, Final residual = 1.65607e-06, No Iterations 2
smoothSolver:  Solving for Uz, Initial residual = 0.0173239, Final residual = 2.69037e-07, No Iterations 2
DICPCG:  Solving for p, Initial residual = 0.0105104, Final residual = 0.000473205, No Iterations 41
time step continuity errors : sum local = 1.01831e-09, global = -7.52824e-19, cumulative = -4.45618e-18
DICPCG:  Solving for p, Initial residual = 0.000944059, Final residual = 6.9594e-07, No Iterations 50
time step continuity errors : sum local = 1.47596e-12, global = -4.64967e-19, cumulative = -4.92115e-18
ExecutionTime = 0.078125 s  ClockTime = 0 s

Time = 0.025s

Courant Number mean: 0.120037 max: 0.289465
smoothSolver:  Solving for Uy, Initial residual = 0.0116983, Final residual = 1.56867e-06, No Iterations 2
smoothSolver:  Solving for Uz, Initial residual = 0.0165282, Final residual = 2.54838e-07, No Iterations 2
DICPCG:  Solving for p, Initial residual = 0.0104955, Final residual = 0.000470035, No Iterations 41
time step continuity errors : sum local = 1.00695e-09, global = -3.4737e-19, cumulative = -5.26852e-18
DICPCG:  Solving for p, Initial residual = 0.000948317, Final residual = 6.85486e-07, No Iterations 50
time step continuity errors : sum local = 1.44358e-12, global = 1.60064e-19, cumulative = -5.10845e-18
ExecutionTime = 0.078125 s  ClockTime = 0 s

Time = 0.026s

Courant Number mean: 0.120038 max: 0.289469
smoothSolver:  Solving for Uy, Initial residual = 0.0112239, Final residual = 1.47467e-06, No Iterations 2
smoothSolver:  Solving for Uz, Initial residual = 0.0157888, Final residual = 2.40873e-07, No Iterations 2
DICPCG:  Solving for p, Initial residual = 0.0104588, Final residual = 0.000456311, No Iterations 41
time step continuity errors : sum local = 9.71644e-10, global = -6.21032e-19, cumulative = -5.72948e-18
DICPCG:  Solving for p, Initial residual = 0.00093978, Final residual = 6.49305e-07, No Iterations 50
time step continuity errors : sum local = 1.36811e-12, global = -8.13695e-19, cumulative = -6.54318e-18
ExecutionTime = 0.09375 s  ClockTime = 0 s

Time = 0.027s

Courant Number mean: 0.120039 max: 0.289473
smoothSolver:  Solving for Uy, Initial residual = 0.0107877, Final residual = 1.37607e-06, No Iterations 2
smoothSolver:  Solving for Uz, Initial residual = 0.0151012, Final residual = 2.27079e-07, No Iterations 2
DICPCG:  Solving for p, Initial residual = 0.0106071, Final residual = 0.000444583, No Iterations 41
time step continuity errors : sum local = 9.40681e-10, global = -9.07115e-19, cumulative = -7.45029e-18
DICPCG:  Solving for p, Initial residual = 0.000945016, Final residual = 7.18653e-07, No Iterations 48
time step continuity errors : sum local = 1.5216e-12, global = -6.66673e-19, cumulative = -8.11697e-18
ExecutionTime = 0.09375 s  ClockTime = 0 s

Time = 0.028s

Courant Number mean: 0.120041 max: 0.289478
smoothSolver:  Solving for Uy, Initial residual = 0.0103923, Final residual = 1.2742e-06, No Iterations 2
smoothSolver:  Solving for Uz, Initial residual = 0.0144618, Final residual = 2.13745e-07, No Iterations 2
DICPCG:  Solving for p, Initial residual = 0.0104141, Final residual = 0.000452833, No Iterations 41
time step continuity errors : sum local = 9.49837e-10, global = 3.89889e-19, cumulative = -7.72708e-18
DICPCG:  Solving for p, Initial residual = 0.000951419, Final residual = 6.92302e-07, No Iterations 48
time step continuity errors : sum local = 1.44774e-12, global = 1.44733e-19, cumulative = -7.58234e-18
ExecutionTime = 0.09375 s  ClockTime = 0 s

Time = 0.029s

Courant Number mean: 0.120042 max: 0.289481
smoothSolver:  Solving for Uy, Initial residual = 0.0100098, Final residual = 1.17145e-06, No Iterations 2
smoothSolver:  Solving for Uz, Initial residual = 0.0138591, Final residual = 2.01238e-07, No Iterations 2
DICPCG:  Solving for p, Initial residual = 0.0103681, Final residual = 0.000489045, No Iterations 40
time step continuity errors : sum local = 1.01652e-09, global = -1.89988e-19, cumulative = -7.77233e-18
DICPCG:  Solving for p, Initial residual = 0.000973457, Final residual = 7.84464e-07, No Iterations 51
time step continuity errors : sum local = 1.64075e-12, global = -4.50408e-19, cumulative = -8.22274e-18
ExecutionTime = 0.09375 s  ClockTime = 0 s

Time = 0.03s

Courant Number mean: 0.120043 max: 0.289485
smoothSolver:  Solving for Uy, Initial residual = 0.0096517, Final residual = 1.07404e-06, No Iterations 2
smoothSolver:  Solving for Uz, Initial residual = 0.0133136, Final residual = 1.89554e-07, No Iterations 2
DICPCG:  Solving for p, Initial residual = 0.0102519, Final residual = 0.000453964, No Iterations 40
time step continuity errors : sum local = 9.43892e-10, global = -5.92404e-19, cumulative = -8.81515e-18
DICPCG:  Solving for p, Initial residual = 0.000946347, Final residual = 8.03956e-07, No Iterations 51
time step continuity errors : sum local = 1.68232e-12, global = -4.39213e-19, cumulative = -9.25436e-18
ExecutionTime = 0.09375 s  ClockTime = 0 s

Time = 0.031s

Courant Number mean: 0.120044 max: 0.289488
smoothSolver:  Solving for Uy, Initial residual = 0.00931522, Final residual = 9.87321e-07, No Iterations 2
smoothSolver:  Solving for Uz, Initial residual = 0.0128125, Final residual = 1.78221e-07, No Iterations 2
DICPCG:  Solving for p, Initial residual = 0.0101827, Final residual = 0.000404837, No Iterations 40
time step continuity errors : sum local = 8.42838e-10, global = -3.87792e-19, cumulative = -9.64215e-18
DICPCG:  Solving for p, Initial residual = 0.000933422, Final residual = 8.93694e-07, No Iterations 51
time step continuity errors : sum local = 1.8699e-12, global = -1.068e-18, cumulative = -1.07102e-17
ExecutionTime = 0.09375 s  ClockTime = 0 s

Time = 0.032s

Courant Number mean: 0.120045 max: 0.28949
smoothSolver:  Solving for Uy, Initial residual = 0.00900765, Final residual = 9.08761e-07, No Iterations 2
smoothSolver:  Solving for Uz, Initial residual = 0.0123521, Final residual = 1.6731e-07, No Iterations 2
DICPCG:  Solving for p, Initial residual = 0.0114892, Final residual = 0.000466707, No Iterations 13
time step continuity errors : sum local = 1.17949e-09, global = -9.76861e-19, cumulative = -1.1687e-17
DICPCG:  Solving for p, Initial residual = 0.00104822, Final residual = 8.69456e-07, No Iterations 49
time step continuity errors : sum local = 1.8267e-12, global = 3.45486e-19, cumulative = -1.13415e-17
ExecutionTime = 0.109375 s  ClockTime = 0 s

Time = 0.033s

Courant Number mean: 0.120046 max: 0.289494
smoothSolver:  Solving for Uy, Initial residual = 0.00876304, Final residual = 8.44448e-07, No Iterations 2
smoothSolver:  Solving for Uz, Initial residual = 0.011943, Final residual = 1.5734e-07, No Iterations 2
DICPCG:  Solving for p, Initial residual = 0.0113202, Final residual = 0.000392003, No Iterations 42
time step continuity errors : sum local = 8.31745e-10, global = 2.40875e-19, cumulative = -1.11007e-17
DICPCG:  Solving for p, Initial residual = 0.000972456, Final residual = 7.71026e-07, No Iterations 50
time step continuity errors : sum local = 1.63209e-12, global = -9.35899e-19, cumulative = -1.20366e-17
ExecutionTime = 0.109375 s  ClockTime = 0 s

Time = 0.034s

Courant Number mean: 0.120047 max: 0.289497
smoothSolver:  Solving for Uy, Initial residual = 0.00848958, Final residual = 7.95657e-07, No Iterations 2
smoothSolver:  Solving for Uz, Initial residual = 0.0114976, Final residual = 1.47145e-07, No Iterations 2
DICPCG:  Solving for p, Initial residual = 0.010481, Final residual = 0.000434627, No Iterations 41
time step continuity errors : sum local = 9.17342e-10, global = -3.99229e-20, cumulative = -1.20765e-17
DICPCG:  Solving for p, Initial residual = 0.000932633, Final residual = 7.49255e-07, No Iterations 50
time step continuity errors : sum local = 1.58878e-12, global = -5.94526e-20, cumulative = -1.21359e-17
ExecutionTime = 0.109375 s  ClockTime = 0 s

Time = 0.035s

Courant Number mean: 0.120048 max: 0.2895
smoothSolver:  Solving for Uy, Initial residual = 0.008253, Final residual = 7.797e-07, No Iterations 2
smoothSolver:  Solving for Uz, Initial residual = 0.0111104, Final residual = 1.38829e-07, No Iterations 2
DICPCG:  Solving for p, Initial residual = 0.0102248, Final residual = 0.000429094, No Iterations 24
time step continuity errors : sum local = 1.05339e-09, global = -1.45327e-18, cumulative = -1.35892e-17
DICPCG:  Solving for p, Initial residual = 0.000862046, Final residual = 6.42141e-07, No Iterations 49
time step continuity errors : sum local = 1.36385e-12, global = -4.94309e-19, cumulative = -1.40835e-17
ExecutionTime = 0.109375 s  ClockTime = 0 s

Time = 0.036s

Courant Number mean: 0.120049 max: 0.289503
smoothSolver:  Solving for Uy, Initial residual = 0.00803424, Final residual = 7.67696e-07, No Iterations 2
smoothSolver:  Solving for Uz, Initial residual = 0.0107644, Final residual = 1.31418e-07, No Iterations 2
DICPCG:  Solving for p, Initial residual = 0.0100696, Final residual = 0.000456957, No Iterations 12
time step continuity errors : sum local = 9.93349e-10, global = -9.85896e-19, cumulative = -1.50694e-17
DICPCG:  Solving for p, Initial residual = 0.000854703, Final residual = 9.54629e-07, No Iterations 49
time step continuity errors : sum local = 2.04606e-12, global = 2.10824e-19, cumulative = -1.48586e-17
ExecutionTime = 0.109375 s  ClockTime = 0 s

Time = 0.037s

Courant Number mean: 0.12005 max: 0.289505
smoothSolver:  Solving for Uy, Initial residual = 0.00784595, Final residual = 7.5326e-07, No Iterations 2
smoothSolver:  Solving for Uz, Initial residual = 0.0104476, Final residual = 1.24729e-07, No Iterations 2
DICPCG:  Solving for p, Initial residual = 0.00995078, Final residual = 0.000439365, No Iterations 5
time step continuity errors : sum local = 1.04854e-09, global = -2.20399e-19, cumulative = -1.5079e-17
DICPCG:  Solving for p, Initial residual = 0.000802537, Final residual = 8.97413e-07, No Iterations 51
time step continuity errors : sum local = 1.91649e-12, global = 4.85134e-19, cumulative = -1.45938e-17
ExecutionTime = 0.109375 s  ClockTime = 0 s

Time = 0.038s

Courant Number mean: 0.120051 max: 0.289508
smoothSolver:  Solving for Uy, Initial residual = 0.00767696, Final residual = 7.35198e-07, No Iterations 2
smoothSolver:  Solving for Uz, Initial residual = 0.0101547, Final residual = 1.18654e-07, No Iterations 2
DICPCG:  Solving for p, Initial residual = 0.0103414, Final residual = 0.000504428, No Iterations 17
time step continuity errors : sum local = 1.26685e-09, global = 5.04922e-19, cumulative = -1.40889e-17
DICPCG:  Solving for p, Initial residual = 0.000970652, Final residual = 7.81644e-07, No Iterations 51
time step continuity errors : sum local = 1.68449e-12, global = -2.04707e-19, cumulative = -1.42936e-17
ExecutionTime = 0.125 s  ClockTime = 0 s

Time = 0.039s

Courant Number mean: 0.120052 max: 0.28951
smoothSolver:  Solving for Uy, Initial residual = 0.00751986, Final residual = 7.1353e-07, No Iterations 2
smoothSolver:  Solving for Uz, Initial residual = 0.0098857, Final residual = 1.13782e-07, No Iterations 2
DICPCG:  Solving for p, Initial residual = 0.0116823, Final residual = 0.000575361, No Iterations 40
time step continuity errors : sum local = 1.24392e-09, global = 6.1348e-19, cumulative = -1.36802e-17
DICPCG:  Solving for p, Initial residual = 0.00111178, Final residual = 7.92688e-07, No Iterations 50
time step continuity errors : sum local = 1.72151e-12, global = 1.09951e-19, cumulative = -1.35702e-17
ExecutionTime = 0.125 s  ClockTime = 0 s

Time = 0.04s

Courant Number mean: 0.120053 max: 0.289514
smoothSolver:  Solving for Uy, Initial residual = 0.00739561, Final residual = 6.93232e-07, No Iterations 2
smoothSolver:  Solving for Uz, Initial residual = 0.00965694, Final residual = 1.10004e-07, No Iterations 2
DICPCG:  Solving for p, Initial residual = 0.0104014, Final residual = 0.000387268, No Iterations 28
time step continuity errors : sum local = 1.10214e-09, global = 2.49713e-19, cumulative = -1.33205e-17
DICPCG:  Solving for p, Initial residual = 0.000796567, Final residual = 8.25313e-07, No Iterations 50
time step continuity errors : sum local = 1.80977e-12, global = -6.10562e-19, cumulative = -1.3931e-17
ExecutionTime = 0.125 s  ClockTime = 0 s

Time = 0.041s

Courant Number mean: 0.120054 max: 0.289517
smoothSolver:  Solving for Uy, Initial residual = 0.00721456, Final residual = 6.62791e-07, No Iterations 2
smoothSolver:  Solving for Uz, Initial residual = 0.00937012, Final residual = 1.05952e-07, No Iterations 2
DICPCG:  Solving for p, Initial residual = 0.00979531, Final residual = 0.000436813, No Iterations 23
time step continuity errors : sum local = 1.03026e-09, global = -4.15136e-19, cumulative = -1.43462e-17
DICPCG:  Solving for p, Initial residual = 0.00082148, Final residual = 7.25934e-07, No Iterations 51
time step continuity errors : sum local = 1.59169e-12, global = -7.66348e-19, cumulative = -1.51125e-17
ExecutionTime = 0.125 s  ClockTime = 0 s

Time = 0.042s

Courant Number mean: 0.120055 max: 0.289519
smoothSolver:  Solving for Uy, Initial residual = 0.00705137, Final residual = 6.3598e-07, No Iterations 2
smoothSolver:  Solving for Uz, Initial residual = 0.00911797, Final residual = 1.02205e-07, No Iterations 2
DICPCG:  Solving for p, Initial residual = 0.00955648, Final residual = 0.000388996, No Iterations 12
time step continuity errors : sum local = 9.13753e-10, global = 1.11694e-19, cumulative = -1.50008e-17
DICPCG:  Solving for p, Initial residual = 0.000768177, Final residual = 6.48583e-07, No Iterations 51
time step continuity errors : sum local = 1.41689e-12, global = -2.95421e-21, cumulative = -1.50038e-17
ExecutionTime = 0.125 s  ClockTime = 0 s

Time = 0.043s

Courant Number mean: 0.120056 max: 0.289522
smoothSolver:  Solving for Uy, Initial residual = 0.00690848, Final residual = 6.08726e-07, No Iterations 2
smoothSolver:  Solving for Uz, Initial residual = 0.00888981, Final residual = 9.86876e-08, No Iterations 2
DICPCG:  Solving for p, Initial residual = 0.00943709, Final residual = 0.000385601, No Iterations 11
time step continuity errors : sum local = 9.19214e-10, global = -1.0931e-18, cumulative = -1.60969e-17
DICPCG:  Solving for p, Initial residual = 0.000784531, Final residual = 9.48305e-07, No Iterations 50
time step continuity errors : sum local = 2.08613e-12, global = -1.04195e-18, cumulative = -1.71388e-17
ExecutionTime = 0.125 s  ClockTime = 0 s

Time = 0.044s

Courant Number mean: 0.120057 max: 0.289525
smoothSolver:  Solving for Uy, Initial residual = 0.00677728, Final residual = 5.81477e-07, No Iterations 2
smoothSolver:  Solving for Uz, Initial residual = 0.00867458, Final residual = 9.51317e-08, No Iterations 2
DICPCG:  Solving for p, Initial residual = 0.00942189, Final residual = 0.000459476, No Iterations 10
time step continuity errors : sum local = 1.05518e-09, global = 2.98427e-19, cumulative = -1.68404e-17
DICPCG:  Solving for p, Initial residual = 0.000848449, Final residual = 9.39332e-07, No Iterations 50
time step continuity errors : sum local = 2.07105e-12, global = -9.86623e-19, cumulative = -1.7827e-17
ExecutionTime = 0.125 s  ClockTime = 0 s

Time = 0.045s

Courant Number mean: 0.120058 max: 0.289527
smoothSolver:  Solving for Uy, Initial residual = 0.006646, Final residual = 5.55941e-07, No Iterations 2
smoothSolver:  Solving for Uz, Initial residual = 0.00846918, Final residual = 9.14341e-08, No Iterations 2
DICPCG:  Solving for p, Initial residual = 0.00959895, Final residual = 0.000465028, No Iterations 11
time step continuity errors : sum local = 1.02537e-09, global = -3.93306e-19, cumulative = -1.82203e-17
DICPCG:  Solving for p, Initial residual = 0.000882935, Final residual = 6.99014e-07, No Iterations 51
time step continuity errors : sum local = 1.54105e-12, global = -9.43928e-19, cumulative = -1.91643e-17
ExecutionTime = 0.140625 s  ClockTime = 0 s

Time = 0.046s

Courant Number mean: 0.120059 max: 0.28953
smoothSolver:  Solving for Uy, Initial residual = 0.00651905, Final residual = 5.32633e-07, No Iterations 2
smoothSolver:  Solving for Uz, Initial residual = 0.0082693, Final residual = 8.7774e-08, No Iterations 2
DICPCG:  Solving for p, Initial residual = 0.0104219, Final residual = 0.000471689, No Iterations 25
time step continuity errors : sum local = 1.17558e-09, global = -4.79934e-19, cumulative = -1.96442e-17
DICPCG:  Solving for p, Initial residual = 0.000951883, Final residual = 7.07375e-07, No Iterations 49
time step continuity errors : sum local = 1.5726e-12, global = 3.15914e-20, cumulative = -1.96126e-17
ExecutionTime = 0.140625 s  ClockTime = 0 s

Time = 0.047s

Courant Number mean: 0.12006 max: 0.289532
smoothSolver:  Solving for Uy, Initial residual = 0.00639756, Final residual = 5.1519e-07, No Iterations 2
smoothSolver:  Solving for Uz, Initial residual = 0.00807034, Final residual = 8.42415e-08, No Iterations 2
DICPCG:  Solving for p, Initial residual = 0.0100391, Final residual = 0.000442115, No Iterations 21
time step continuity errors : sum local = 1.18872e-09, global = 1.3276e-19, cumulative = -1.94799e-17
DICPCG:  Solving for p, Initial residual = 0.000924324, Final residual = 9.69438e-07, No Iterations 49
time step continuity errors : sum local = 2.1527e-12, global = -1.77185e-18, cumulative = -2.12517e-17
ExecutionTime = 0.140625 s  ClockTime = 0 s

Time = 0.048s

Courant Number mean: 0.120061 max: 0.289534
smoothSolver:  Solving for Uy, Initial residual = 0.00630887, Final residual = 5.04771e-07, No Iterations 2
smoothSolver:  Solving for Uz, Initial residual = 0.00791245, Final residual = 8.14337e-08, No Iterations 2
DICPCG:  Solving for p, Initial residual = 0.0114256, Final residual = 0.000504375, No Iterations 21
time step continuity errors : sum local = 1.36789e-09, global = 2.74568e-19, cumulative = -2.09771e-17
DICPCG:  Solving for p, Initial residual = 0.00107394, Final residual = 6.36608e-07, No Iterations 49
time step continuity errors : sum local = 1.42272e-12, global = 5.77639e-19, cumulative = -2.03995e-17
ExecutionTime = 0.140625 s  ClockTime = 0 s

Time = 0.049s

Courant Number mean: 0.120063 max: 0.289537
smoothSolver:  Solving for Uy, Initial residual = 0.00623408, Final residual = 4.9792e-07, No Iterations 2
smoothSolver:  Solving for Uz, Initial residual = 0.00776647, Final residual = 7.88878e-08, No Iterations 2
DICPCG:  Solving for p, Initial residual = 0.0104644, Final residual = 0.000458099, No Iterations 39
time step continuity errors : sum local = 1.01439e-09, global = -4.80362e-19, cumulative = -2.08799e-17
DICPCG:  Solving for p, Initial residual = 0.000926118, Final residual = 8.59474e-07, No Iterations 51
time step continuity errors : sum local = 1.90092e-12, global = 1.30773e-19, cumulative = -2.07491e-17
ExecutionTime = 0.140625 s  ClockTime = 0 s

Time = 0.05s

Courant Number mean: 0.120064 max: 0.28954
smoothSolver:  Solving for Uy, Initial residual = 0.00610451, Final residual = 4.81823e-07, No Iterations 2
smoothSolver:  Solving for Uz, Initial residual = 0.00756943, Final residual = 7.53627e-08, No Iterations 2
DICPCG:  Solving for p, Initial residual = 0.0101581, Final residual = 0.000420675, No Iterations 39
time step continuity errors : sum local = 9.3733e-10, global = 2.22751e-19, cumulative = -2.05263e-17
DICPCG:  Solving for p, Initial residual = 0.000880871, Final residual = 8.07457e-07, No Iterations 37
time step continuity errors : sum local = 2.3737e-12, global = -5.06698e-19, cumulative = -2.1033e-17
ExecutionTime = 0.140625 s  ClockTime = 0 s

Time = 0.051s

Courant Number mean: 0.120065 max: 0.289542
smoothSolver:  Solving for Uy, Initial residual = 0.0059835, Final residual = 4.67887e-07, No Iterations 2
smoothSolver:  Solving for Uz, Initial residual = 0.00739379, Final residual = 7.23162e-08, No Iterations 2
DICPCG:  Solving for p, Initial residual = 0.0100883, Final residual = 0.000409651, No Iterations 27
time step continuity errors : sum local = 1.17704e-09, global = 3.70728e-20, cumulative = -2.0996e-17
DICPCG:  Solving for p, Initial residual = 0.000830873, Final residual = 8.70177e-07, No Iterations 49
time step continuity errors : sum local = 1.93226e-12, global = 4.84838e-19, cumulative = -2.05111e-17
ExecutionTime = 0.140625 s  ClockTime = 0 s

Time = 0.052s

Courant Number mean: 0.120066 max: 0.289545
smoothSolver:  Solving for Uy, Initial residual = 0.00586652, Final residual = 4.54947e-07, No Iterations 2
smoothSolver:  Solving for Uz, Initial residual = 0.00722949, Final residual = 6.97157e-08, No Iterations 2
DICPCG:  Solving for p, Initial residual = 0.01054, Final residual = 0.000490985, No Iterations 26
time step continuity errors : sum local = 1.3094e-09, global = -1.43282e-18, cumulative = -2.19439e-17
DICPCG:  Solving for p, Initial residual = 0.000955864, Final residual = 8.07053e-07, No Iterations 50
time step continuity errors : sum local = 1.80077e-12, global = -3.20387e-19, cumulative = -2.22643e-17
ExecutionTime = 0.15625 s  ClockTime = 0 s

Time = 0.053s

Courant Number mean: 0.120067 max: 0.289547
smoothSolver:  Solving for Uy, Initial residual = 0.00576629, Final residual = 4.4431e-07, No Iterations 2
smoothSolver:  Solving for Uz, Initial residual = 0.00707382, Final residual = 6.74168e-08, No Iterations 2
DICPCG:  Solving for p, Initial residual = 0.0106672, Final residual = 0.000480521, No Iterations 26
time step continuity errors : sum local = 1.29812e-09, global = 1.70238e-19, cumulative = -2.20941e-17
DICPCG:  Solving for p, Initial residual = 0.000970279, Final residual = 9.35397e-07, No Iterations 48
time step continuity errors : sum local = 2.10842e-12, global = 2.49639e-19, cumulative = -2.18445e-17
ExecutionTime = 0.15625 s  ClockTime = 0 s

Time = 0.054s

Courant Number mean: 0.120068 max: 0.289549
smoothSolver:  Solving for Uy, Initial residual = 0.00567424, Final residual = 4.31604e-07, No Iterations 2
smoothSolver:  Solving for Uz, Initial residual = 0.00692419, Final residual = 6.5217e-08, No Iterations 2
DICPCG:  Solving for p, Initial residual = 0.0111108, Final residual = 0.000439236, No Iterations 39
time step continuity errors : sum local = 9.85866e-10, global = -6.19831e-19, cumulative = -2.24643e-17
DICPCG:  Solving for p, Initial residual = 0.000996553, Final residual = 7.91584e-07, No Iterations 51
time step continuity errors : sum local = 1.7672e-12, global = -8.59207e-19, cumulative = -2.33235e-17
ExecutionTime = 0.15625 s  ClockTime = 0 s

Time = 0.055s

Courant Number mean: 0.120068 max: 0.289551
smoothSolver:  Solving for Uy, Initial residual = 0.00558303, Final residual = 4.1492e-07, No Iterations 2
smoothSolver:  Solving for Uz, Initial residual = 0.00676644, Final residual = 6.3061e-08, No Iterations 2
DICPCG:  Solving for p, Initial residual = 0.0100916, Final residual = 0.000453835, No Iterations 17
time step continuity errors : sum local = 1.09052e-09, global = -2.65861e-19, cumulative = -2.35894e-17
DICPCG:  Solving for p, Initial residual = 0.000931702, Final residual = 6.30082e-07, No Iterations 50
time step continuity errors : sum local = 1.42439e-12, global = -8.41977e-19, cumulative = -2.44313e-17
ExecutionTime = 0.15625 s  ClockTime = 0 s

Time = 0.056s

Courant Number mean: 0.120069 max: 0.289553
smoothSolver:  Solving for Uy, Initial residual = 0.00551207, Final residual = 4.04438e-07, No Iterations 2
smoothSolver:  Solving for Uz, Initial residual = 0.00664687, Final residual = 6.12482e-08, No Iterations 2
DICPCG:  Solving for p, Initial residual = 0.0100409, Final residual = 0.000441672, No Iterations 16
time step continuity errors : sum local = 1.00266e-09, global = -5.47291e-20, cumulative = -2.44861e-17
DICPCG:  Solving for p, Initial residual = 0.000907941, Final residual = 9.39184e-07, No Iterations 50
time step continuity errors : sum local = 2.13689e-12, global = -2.66975e-19, cumulative = -2.4753e-17
ExecutionTime = 0.15625 s  ClockTime = 0 s

Time = 0.057s

Courant Number mean: 0.12007 max: 0.289555
smoothSolver:  Solving for Uy, Initial residual = 0.00543324, Final residual = 3.93638e-07, No Iterations 2
smoothSolver:  Solving for Uz, Initial residual = 0.00652594, Final residual = 5.94785e-08, No Iterations 2
DICPCG:  Solving for p, Initial residual = 0.0112583, Final residual = 0.000482364, No Iterations 14
time step continuity errors : sum local = 1.10706e-09, global = -5.01719e-19, cumulative = -2.52548e-17
DICPCG:  Solving for p, Initial residual = 0.00103262, Final residual = 4.88891e-07, No Iterations 51
time step continuity errors : sum local = 1.10404e-12, global = 7.28551e-19, cumulative = -2.45262e-17
ExecutionTime = 0.15625 s  ClockTime = 0 s

Time = 0.058s

Courant Number mean: 0.120071 max: 0.289557
smoothSolver:  Solving for Uy, Initial residual = 0.00536113, Final residual = 3.83467e-07, No Iterations 2
smoothSolver:  Solving for Uz, Initial residual = 0.00640851, Final residual = 5.77609e-08, No Iterations 2
DICPCG:  Solving for p, Initial residual = 0.0128092, Final residual = 0.00063256, No Iterations 7
time step continuity errors : sum local = 1.4563e-09, global = 7.26038e-19, cumulative = -2.38002e-17
DICPCG:  Solving for p, Initial residual = 0.00122356, Final residual = 9.26461e-07, No Iterations 49
time step continuity errors : sum local = 2.10327e-12, global = 4.09458e-19, cumulative = -2.33907e-17
ExecutionTime = 0.171875 s  ClockTime = 0 s

Time = 0.059s

Courant Number mean: 0.120072 max: 0.289559
smoothSolver:  Solving for Uy, Initial residual = 0.00529334, Final residual = 3.72813e-07, No Iterations 2
smoothSolver:  Solving for Uz, Initial residual = 0.00629536, Final residual = 5.61508e-08, No Iterations 2
DICPCG:  Solving for p, Initial residual = 0.0108683, Final residual = 0.000523748, No Iterations 24
time step continuity errors : sum local = 1.4034e-09, global = -4.48159e-19, cumulative = -2.38389e-17
DICPCG:  Solving for p, Initial residual = 0.0010065, Final residual = 5.58154e-07, No Iterations 51
time step continuity errors : sum local = 1.26978e-12, global = -6.75546e-19, cumulative = -2.45144e-17
ExecutionTime = 0.171875 s  ClockTime = 0 s

Time = 0.06s

Courant Number mean: 0.120073 max: 0.289561
smoothSolver:  Solving for Uy, Initial residual = 0.00522032, Final residual = 3.59473e-07, No Iterations 2
smoothSolver:  Solving for Uz, Initial residual = 0.00617031, Final residual = 5.4457e-08, No Iterations 2
DICPCG:  Solving for p, Initial residual = 0.0111187, Final residual = 0.000537345, No Iterations 17
time step continuity errors : sum local = 1.32029e-09, global = -8.15588e-20, cumulative = -2.4596e-17
DICPCG:  Solving for p, Initial residual = 0.00104788, Final residual = 8.49998e-07, No Iterations 48
time step continuity errors : sum local = 1.94892e-12, global = 6.97681e-19, cumulative = -2.38983e-17
ExecutionTime = 0.171875 s  ClockTime = 0 s

Time = 0.061s

Courant Number mean: 0.120074 max: 0.289563
smoothSolver:  Solving for Uy, Initial residual = 0.00515251, Final residual = 3.45892e-07, No Iterations 2
smoothSolver:  Solving for Uz, Initial residual = 0.00605481, Final residual = 5.2918e-08, No Iterations 2
DICPCG:  Solving for p, Initial residual = 0.0108398, Final residual = 0.000535526, No Iterations 11
time step continuity errors : sum local = 1.25387e-09, global = 1.35586e-19, cumulative = -2.37627e-17
DICPCG:  Solving for p, Initial residual = 0.00102182, Final residual = 8.67372e-07, No Iterations 47
time step continuity errors : sum local = 1.99701e-12, global = -2.28513e-19, cumulative = -2.39912e-17
ExecutionTime = 0.171875 s  ClockTime = 0 s

Time = 0.062s

Courant Number mean: 0.120075 max: 0.289565
smoothSolver:  Solving for Uy, Initial residual = 0.00508681, Final residual = 3.33887e-07, No Iterations 2
smoothSolver:  Solving for Uz, Initial residual = 0.00594508, Final residual = 5.13782e-08, No Iterations 2
DICPCG:  Solving for p, Initial residual = 0.0101993, Final residual = 0.000466878, No Iterations 11
time step continuity errors : sum local = 1.08324e-09, global = 9.07128e-20, cumulative = -2.39005e-17
DICPCG:  Solving for p, Initial residual = 0.000902393, Final residual = 8.75446e-07, No Iterations 49
time step continuity errors : sum local = 2.01249e-12, global = 7.92364e-19, cumulative = -2.31081e-17
ExecutionTime = 0.171875 s  ClockTime = 0 s

Time = 0.063s

Courant Number mean: 0.120076 max: 0.289567
smoothSolver:  Solving for Uy, Initial residual = 0.00501704, Final residual = 3.22807e-07, No Iterations 2
smoothSolver:  Solving for Uz, Initial residual = 0.00583978, Final residual = 4.98124e-08, No Iterations 2
DICPCG:  Solving for p, Initial residual = 0.0101359, Final residual = 0.000398396, No Iterations 11
time step continuity errors : sum local = 9.30422e-10, global = 1.71302e-19, cumulative = -2.29368e-17
DICPCG:  Solving for p, Initial residual = 0.000854703, Final residual = 9.26798e-07, No Iterations 49
time step continuity errors : sum local = 2.14009e-12, global = -3.4444e-19, cumulative = -2.32813e-17
ExecutionTime = 0.171875 s  ClockTime = 0 s

Time = 0.064s

Courant Number mean: 0.120077 max: 0.289569
smoothSolver:  Solving for Uy, Initial residual = 0.00495444, Final residual = 3.1356e-07, No Iterations 2
smoothSolver:  Solving for Uz, Initial residual = 0.00573972, Final residual = 4.82918e-08, No Iterations 2
DICPCG:  Solving for p, Initial residual = 0.0101272, Final residual = 0.000373122, No Iterations 11
time step continuity errors : sum local = 8.88573e-10, global = -2.50079e-19, cumulative = -2.35314e-17
DICPCG:  Solving for p, Initial residual = 0.000842232, Final residual = 8.68422e-07, No Iterations 49
time step continuity errors : sum local = 2.0164e-12, global = -6.5979e-19, cumulative = -2.41911e-17
ExecutionTime = 0.171875 s  ClockTime = 0 s

Time = 0.065s

Courant Number mean: 0.120078 max: 0.289571
smoothSolver:  Solving for Uy, Initial residual = 0.00489128, Final residual = 3.05077e-07, No Iterations 2
smoothSolver:  Solving for Uz, Initial residual = 0.00564346, Final residual = 4.67536e-08, No Iterations 2
DICPCG:  Solving for p, Initial residual = 0.0102451, Final residual = 0.000381737, No Iterations 11
time step continuity errors : sum local = 9.13958e-10, global = -5.87026e-19, cumulative = -2.47782e-17
DICPCG:  Solving for p, Initial residual = 0.000879927, Final residual = 9.60043e-07, No Iterations 49
time step continuity errors : sum local = 2.2453e-12, global = 1.08774e-18, cumulative = -2.36904e-17
ExecutionTime = 0.171875 s  ClockTime = 0 s

Time = 0.066s

Courant Number mean: 0.120079 max: 0.289573
smoothSolver:  Solving for Uy, Initial residual = 0.00482889, Final residual = 2.96107e-07, No Iterations 2
smoothSolver:  Solving for Uz, Initial residual = 0.00554982, Final residual = 4.52062e-08, No Iterations 2
DICPCG:  Solving for p, Initial residual = 0.0108687, Final residual = 0.000471698, No Iterations 11
time step continuity errors : sum local = 1.11223e-09, global = 2.01959e-19, cumulative = -2.34885e-17
DICPCG:  Solving for p, Initial residual = 0.000979133, Final residual = 7.60107e-07, No Iterations 48
time step continuity errors : sum local = 1.78768e-12, global = 1.16002e-19, cumulative = -2.33725e-17
ExecutionTime = 0.1875 s  ClockTime = 0 s

Time = 0.067s

Courant Number mean: 0.12008 max: 0.289575
smoothSolver:  Solving for Uy, Initial residual = 0.00476873, Final residual = 2.86458e-07, No Iterations 2
smoothSolver:  Solving for Uz, Initial residual = 0.00545709, Final residual = 4.36951e-08, No Iterations 2
DICPCG:  Solving for p, Initial residual = 0.0119168, Final residual = 0.000575511, No Iterations 27
time step continuity errors : sum local = 1.67158e-09, global = -7.75621e-19, cumulative = -2.41481e-17
DICPCG:  Solving for p, Initial residual = 0.00113612, Final residual = 7.54945e-07, No Iterations 51
time step continuity errors : sum local = 1.77577e-12, global = 7.09564e-19, cumulative = -2.34385e-17
ExecutionTime = 0.1875 s  ClockTime = 0 s

Time = 0.068s

Courant Number mean: 0.120081 max: 0.289577
smoothSolver:  Solving for Uy, Initial residual = 0.00470303, Final residual = 2.76241e-07, No Iterations 2
smoothSolver:  Solving for Uz, Initial residual = 0.00535179, Final residual = 4.2175e-08, No Iterations 2
DICPCG:  Solving for p, Initial residual = 0.0119355, Final residual = 0.000589441, No Iterations 40
time step continuity errors : sum local = 1.38906e-09, global = -2.70725e-19, cumulative = -2.37093e-17
DICPCG:  Solving for p, Initial residual = 0.00110999, Final residual = 7.78931e-07, No Iterations 50
time step continuity errors : sum local = 1.84596e-12, global = -4.70982e-19, cumulative = -2.41802e-17
ExecutionTime = 0.1875 s  ClockTime = 0 s

Time = 0.069s

Courant Number mean: 0.120082 max: 0.289578
smoothSolver:  Solving for Uy, Initial residual = 0.00465769, Final residual = 2.72047e-07, No Iterations 2
smoothSolver:  Solving for Uz, Initial residual = 0.00529051, Final residual = 4.09863e-08, No Iterations 2
DICPCG:  Solving for p, Initial residual = 0.0129272, Final residual = 0.000637476, No Iterations 21
time step continuity errors : sum local = 1.88937e-09, global = -3.97908e-19, cumulative = -2.45781e-17
DICPCG:  Solving for p, Initial residual = 0.00120042, Final residual = 8.4262e-07, No Iterations 51
time step continuity errors : sum local = 1.98922e-12, global = -8.30267e-19, cumulative = -2.54084e-17
ExecutionTime = 0.1875 s  ClockTime = 0 s

Time = 0.07s

Courant Number mean: 0.120083 max: 0.28958
smoothSolver:  Solving for Uy, Initial residual = 0.00462913, Final residual = 2.68059e-07, No Iterations 2
smoothSolver:  Solving for Uz, Initial residual = 0.00523091, Final residual = 4.00065e-08, No Iterations 2
DICPCG:  Solving for p, Initial residual = 0.0120198, Final residual = 0.000507593, No Iterations 28
time step continuity errors : sum local = 1.53203e-09, global = -3.46914e-20, cumulative = -2.54431e-17
DICPCG:  Solving for p, Initial residual = 0.00103682, Final residual = 8.69683e-07, No Iterations 50
time step continuity errors : sum local = 2.07347e-12, global = 6.41613e-19, cumulative = -2.48015e-17
ExecutionTime = 0.1875 s  ClockTime = 0 s

Time = 0.071s

Courant Number mean: 0.120084 max: 0.289582
smoothSolver:  Solving for Uy, Initial residual = 0.00457218, Final residual = 2.59592e-07, No Iterations 2
smoothSolver:  Solving for Uz, Initial residual = 0.00512872, Final residual = 3.83117e-08, No Iterations 2
DICPCG:  Solving for p, Initial residual = 0.0120035, Final residual = 0.00048822, No Iterations 41
time step continuity errors : sum local = 1.1556e-09, global = -3.45297e-21, cumulative = -2.48049e-17
DICPCG:  Solving for p, Initial residual = 0.00103874, Final residual = 6.34331e-07, No Iterations 52
time step continuity errors : sum local = 1.49241e-12, global = -5.80753e-19, cumulative = -2.53857e-17
ExecutionTime = 0.1875 s  ClockTime = 0 s

Time = 0.072s

Courant Number mean: 0.120085 max: 0.289584
smoothSolver:  Solving for Uy, Initial residual = 0.00452113, Final residual = 2.50085e-07, No Iterations 2
smoothSolver:  Solving for Uz, Initial residual = 0.00502485, Final residual = 3.67914e-08, No Iterations 2
DICPCG:  Solving for p, Initial residual = 0.0105817, Final residual = 0.000520837, No Iterations 13
time step continuity errors : sum local = 1.23598e-09, global = -8.98329e-19, cumulative = -2.6284e-17
DICPCG:  Solving for p, Initial residual = 0.000960098, Final residual = 6.51136e-07, No Iterations 51
time step continuity errors : sum local = 1.53935e-12, global = 9.61699e-19, cumulative = -2.53223e-17
ExecutionTime = 0.203125 s  ClockTime = 0 s

Time = 0.073s

Courant Number mean: 0.120086 max: 0.289585
smoothSolver:  Solving for Uy, Initial residual = 0.00446912, Final residual = 2.41687e-07, No Iterations 2
smoothSolver:  Solving for Uz, Initial residual = 0.00495304, Final residual = 3.57245e-08, No Iterations 2
DICPCG:  Solving for p, Initial residual = 0.0105395, Final residual = 0.000456666, No Iterations 11
time step continuity errors : sum local = 1.10543e-09, global = 3.20671e-19, cumulative = -2.50017e-17
DICPCG:  Solving for p, Initial residual = 0.000908336, Final residual = 7.93847e-07, No Iterations 50
time step continuity errors : sum local = 1.88154e-12, global = -1.70883e-19, cumulative = -2.51725e-17
ExecutionTime = 0.203125 s  ClockTime = 0 s

Time = 0.074s

Courant Number mean: 0.120087 max: 0.289587
smoothSolver:  Solving for Uy, Initial residual = 0.00441377, Final residual = 2.34371e-07, No Iterations 2
smoothSolver:  Solving for Uz, Initial residual = 0.00487901, Final residual = 9.88322e-06, No Iterations 1
DICPCG:  Solving for p, Initial residual = 0.0108972, Final residual = 0.000540944, No Iterations 10
time step continuity errors : sum local = 1.29878e-09, global = 8.32128e-19, cumulative = -2.43404e-17
DICPCG:  Solving for p, Initial residual = 0.000960907, Final residual = 8.06526e-07, No Iterations 50
time step continuity errors : sum local = 1.92755e-12, global = 4.08632e-19, cumulative = -2.39318e-17
ExecutionTime = 0.203125 s  ClockTime = 0 s

Time = 0.075s

Courant Number mean: 0.120088 max: 0.289588
smoothSolver:  Solving for Uy, Initial residual = 0.00435637, Final residual = 2.27371e-07, No Iterations 2
smoothSolver:  Solving for Uz, Initial residual = 0.00480602, Final residual = 9.69424e-06, No Iterations 1
DICPCG:  Solving for p, Initial residual = 0.0109051, Final residual = 0.000496654, No Iterations 10
time step continuity errors : sum local = 1.18495e-09, global = 1.14936e-18, cumulative = -2.27824e-17
DICPCG:  Solving for p, Initial residual = 0.000957366, Final residual = 9.75919e-07, No Iterations 49
time step continuity errors : sum local = 2.34885e-12, global = 4.5799e-20, cumulative = -2.27366e-17
ExecutionTime = 0.203125 s  ClockTime = 0 s

Time = 0.076s

Courant Number mean: 0.120089 max: 0.28959
smoothSolver:  Solving for Uy, Initial residual = 0.00430655, Final residual = 2.21281e-07, No Iterations 2
smoothSolver:  Solving for Uz, Initial residual = 0.00473602, Final residual = 9.5071e-06, No Iterations 1
DICPCG:  Solving for p, Initial residual = 0.0112349, Final residual = 0.000468024, No Iterations 10
time step continuity errors : sum local = 1.1227e-09, global = -4.74734e-20, cumulative = -2.27841e-17
DICPCG:  Solving for p, Initial residual = 0.000973626, Final residual = 9.02655e-07, No Iterations 50
time step continuity errors : sum local = 2.16891e-12, global = -9.24652e-19, cumulative = -2.37087e-17
ExecutionTime = 0.203125 s  ClockTime = 0 s

Time = 0.077s

Courant Number mean: 0.120089 max: 0.289591
smoothSolver:  Solving for Uy, Initial residual = 0.00425974, Final residual = 2.16093e-07, No Iterations 2
smoothSolver:  Solving for Uz, Initial residual = 0.00466814, Final residual = 9.32662e-06, No Iterations 1
DICPCG:  Solving for p, Initial residual = 0.010333, Final residual = 0.000447158, No Iterations 10
time step continuity errors : sum local = 1.0829e-09, global = -1.65423e-19, cumulative = -2.38742e-17
DICPCG:  Solving for p, Initial residual = 0.00086099, Final residual = 8.8421e-07, No Iterations 50
time step continuity errors : sum local = 2.14216e-12, global = 6.92024e-21, cumulative = -2.38672e-17
ExecutionTime = 0.203125 s  ClockTime = 0 s

Time = 0.078s

Courant Number mean: 0.12009 max: 0.289593
smoothSolver:  Solving for Uy, Initial residual = 0.00421653, Final residual = 2.10955e-07, No Iterations 2
smoothSolver:  Solving for Uz, Initial residual = 0.00460206, Final residual = 9.1511e-06, No Iterations 1
DICPCG:  Solving for p, Initial residual = 0.0103555, Final residual = 0.000472014, No Iterations 10
time step continuity errors : sum local = 1.15695e-09, global = 7.98783e-20, cumulative = -2.37874e-17
DICPCG:  Solving for p, Initial residual = 0.000897787, Final residual = 9.22627e-07, No Iterations 50
time step continuity errors : sum local = 2.24289e-12, global = -9.39813e-19, cumulative = -2.47272e-17
ExecutionTime = 0.203125 s  ClockTime = 0 s

Time = 0.079s

Courant Number mean: 0.120091 max: 0.289594
smoothSolver:  Solving for Uy, Initial residual = 0.00417691, Final residual = 2.05823e-07, No Iterations 2
smoothSolver:  Solving for Uz, Initial residual = 0.00453876, Final residual = 8.98579e-06, No Iterations 1
DICPCG:  Solving for p, Initial residual = 0.011399, Final residual = 0.000521537, No Iterations 13
time step continuity errors : sum local = 1.29959e-09, global = -1.03251e-19, cumulative = -2.48304e-17
DICPCG:  Solving for p, Initial residual = 0.000999541, Final residual = 5.69124e-07, No Iterations 50
time step continuity errors : sum local = 1.38871e-12, global = 6.11946e-19, cumulative = -2.42185e-17
ExecutionTime = 0.21875 s  ClockTime = 0 s

Time = 0.08s

Courant Number mean: 0.120092 max: 0.289596
smoothSolver:  Solving for Uy, Initial residual = 0.0041374, Final residual = 2.01245e-07, No Iterations 2
smoothSolver:  Solving for Uz, Initial residual = 0.00447933, Final residual = 8.82656e-06, No Iterations 1
DICPCG:  Solving for p, Initial residual = 0.0121449, Final residual = 0.00055817, No Iterations 18
time step continuity errors : sum local = 1.51125e-09, global = -7.70345e-19, cumulative = -2.49888e-17
DICPCG:  Solving for p, Initial residual = 0.00115164, Final residual = 5.08051e-07, No Iterations 49
time step continuity errors : sum local = 1.24695e-12, global = -8.00511e-19, cumulative = -2.57893e-17
ExecutionTime = 0.234375 s  ClockTime = 0 s

Time = 0.081s

Courant Number mean: 0.120093 max: 0.289597
smoothSolver:  Solving for Uy, Initial residual = 0.0040975, Final residual = 1.97329e-07, No Iterations 2
smoothSolver:  Solving for Uz, Initial residual = 0.00442712, Final residual = 8.69535e-06, No Iterations 1
DICPCG:  Solving for p, Initial residual = 0.0144025, Final residual = 0.000629566, No Iterations 7
time step continuity errors : sum local = 1.5689e-09, global = -8.08799e-19, cumulative = -2.65981e-17
DICPCG:  Solving for p, Initial residual = 0.00123643, Final residual = 6.58214e-07, No Iterations 48
time step continuity errors : sum local = 1.61185e-12, global = 5.73921e-20, cumulative = -2.65407e-17
ExecutionTime = 0.234375 s  ClockTime = 0 s

Time = 0.082s

Courant Number mean: 0.120094 max: 0.289599
smoothSolver:  Solving for Uy, Initial residual = 0.00405626, Final residual = 1.92862e-07, No Iterations 2
smoothSolver:  Solving for Uz, Initial residual = 0.00436552, Final residual = 8.53645e-06, No Iterations 1
DICPCG:  Solving for p, Initial residual = 0.011928, Final residual = 0.000543796, No Iterations 19
time step continuity errors : sum local = 1.42787e-09, global = -4.54869e-19, cumulative = -2.69956e-17
DICPCG:  Solving for p, Initial residual = 0.00103405, Final residual = 8.61671e-07, No Iterations 49
time step continuity errors : sum local = 2.12266e-12, global = -7.99603e-19, cumulative = -2.77952e-17
ExecutionTime = 0.234375 s  ClockTime = 0 s

Time = 0.083s

Courant Number mean: 0.120095 max: 0.2896
smoothSolver:  Solving for Uy, Initial residual = 0.00401646, Final residual = 1.89299e-07, No Iterations 2
smoothSolver:  Solving for Uz, Initial residual = 0.00429991, Final residual = 8.35606e-06, No Iterations 1
DICPCG:  Solving for p, Initial residual = 0.0114237, Final residual = 0.000484645, No Iterations 28
time step continuity errors : sum local = 1.48625e-09, global = 6.28165e-19, cumulative = -2.71671e-17
DICPCG:  Solving for p, Initial residual = 0.000949644, Final residual = 7.96257e-07, No Iterations 51
time step continuity errors : sum local = 1.94416e-12, global = -2.64851e-19, cumulative = -2.74319e-17
ExecutionTime = 0.234375 s  ClockTime = 0 s

Time = 0.084s

Courant Number mean: 0.120096 max: 0.289602
smoothSolver:  Solving for Uy, Initial residual = 0.00397116, Final residual = 1.84183e-07, No Iterations 2
smoothSolver:  Solving for Uz, Initial residual = 0.00422756, Final residual = 8.16475e-06, No Iterations 1
DICPCG:  Solving for p, Initial residual = 0.0113472, Final residual = 0.000512, No Iterations 27
time step continuity errors : sum local = 1.52684e-09, global = -2.81027e-19, cumulative = -2.77129e-17
DICPCG:  Solving for p, Initial residual = 0.000952111, Final residual = 8.0195e-07, No Iterations 51
time step continuity errors : sum local = 1.95957e-12, global = 1.26821e-19, cumulative = -2.75861e-17
ExecutionTime = 0.234375 s  ClockTime = 0 s

Time = 0.085s

Courant Number mean: 0.120097 max: 0.289603
smoothSolver:  Solving for Uy, Initial residual = 0.00393196, Final residual = 1.79114e-07, No Iterations 2
smoothSolver:  Solving for Uz, Initial residual = 0.0041599, Final residual = 7.9954e-06, No Iterations 1
DICPCG:  Solving for p, Initial residual = 0.0122237, Final residual = 0.000505935, No Iterations 27
time step continuity errors : sum local = 1.52075e-09, global = -2.63191e-19, cumulative = -2.78493e-17
DICPCG:  Solving for p, Initial residual = 0.000981188, Final residual = 8.97449e-07, No Iterations 50
time step continuity errors : sum local = 2.20505e-12, global = 3.31666e-19, cumulative = -2.75176e-17
ExecutionTime = 0.234375 s  ClockTime = 0 s

Time = 0.086s

Courant Number mean: 0.120098 max: 0.289604
smoothSolver:  Solving for Uy, Initial residual = 0.00390047, Final residual = 1.74902e-07, No Iterations 2
smoothSolver:  Solving for Uz, Initial residual = 0.00409368, Final residual = 7.83339e-06, No Iterations 1
DICPCG:  Solving for p, Initial residual = 0.011262, Final residual = 0.00045235, No Iterations 20
time step continuity errors : sum local = 1.35547e-09, global = 3.10647e-19, cumulative = -2.7207e-17
DICPCG:  Solving for p, Initial residual = 0.000936811, Final residual = 5.80241e-07, No Iterations 49
time step continuity errors : sum local = 1.4225e-12, global = 2.73806e-19, cumulative = -2.69332e-17
ExecutionTime = 0.234375 s  ClockTime = 0 s

Time = 0.087s

Courant Number mean: 0.120099 max: 0.289605
smoothSolver:  Solving for Uy, Initial residual = 0.00385973, Final residual = 1.7158e-07, No Iterations 2
smoothSolver:  Solving for Uz, Initial residual = 0.00405246, Final residual = 7.70547e-06, No Iterations 1
DICPCG:  Solving for p, Initial residual = 0.0107533, Final residual = 0.000537345, No Iterations 18
time step continuity errors : sum local = 1.4703e-09, global = -4.57299e-19, cumulative = -2.73905e-17
DICPCG:  Solving for p, Initial residual = 0.00097507, Final residual = 9.82277e-07, No Iterations 49
time step continuity errors : sum local = 2.41202e-12, global = -5.15791e-19, cumulative = -2.79063e-17
ExecutionTime = 0.25 s  ClockTime = 0 s

Time = 0.088s

Courant Number mean: 0.120099 max: 0.289606
smoothSolver:  Solving for Uy, Initial residual = 0.00382313, Final residual = 1.68217e-07, No Iterations 2
smoothSolver:  Solving for Uz, Initial residual = 0.00400815, Final residual = 7.58372e-06, No Iterations 1
DICPCG:  Solving for p, Initial residual = 0.0112323, Final residual = 0.000459986, No Iterations 18
time step continuity errors : sum local = 1.26963e-09, global = -3.01714e-19, cumulative = -2.8208e-17
DICPCG:  Solving for p, Initial residual = 0.000923257, Final residual = 7.096e-07, No Iterations 50
time step continuity errors : sum local = 1.75475e-12, global = 1.08241e-20, cumulative = -2.81972e-17
ExecutionTime = 0.25 s  ClockTime = 0 s

Time = 0.089s

Courant Number mean: 0.1201 max: 0.289608
smoothSolver:  Solving for Uy, Initial residual = 0.0037921, Final residual = 1.64784e-07, No Iterations 2
smoothSolver:  Solving for Uz, Initial residual = 0.00396437, Final residual = 7.46792e-06, No Iterations 1
DICPCG:  Solving for p, Initial residual = 0.0107918, Final residual = 0.000494013, No Iterations 10
time step continuity errors : sum local = 1.24907e-09, global = -9.24955e-19, cumulative = -2.91221e-17
DICPCG:  Solving for p, Initial residual = 0.00090602, Final residual = 7.57644e-07, No Iterations 51
time step continuity errors : sum local = 1.88473e-12, global = 4.29989e-19, cumulative = -2.86921e-17
ExecutionTime = 0.25 s  ClockTime = 0 s

Time = 0.09s

Courant Number mean: 0.120101 max: 0.289609
smoothSolver:  Solving for Uy, Initial residual = 0.00375899, Final residual = 1.60545e-07, No Iterations 2
smoothSolver:  Solving for Uz, Initial residual = 0.003913, Final residual = 7.33631e-06, No Iterations 1
DICPCG:  Solving for p, Initial residual = 0.0108409, Final residual = 0.000536744, No Iterations 9
time step continuity errors : sum local = 1.35167e-09, global = -4.39267e-19, cumulative = -2.91314e-17
DICPCG:  Solving for p, Initial residual = 0.000947113, Final residual = 9.03764e-07, No Iterations 50
time step continuity errors : sum local = 2.26947e-12, global = -3.56357e-19, cumulative = -2.94878e-17
ExecutionTime = 0.25 s  ClockTime = 0 s

Time = 0.091s

Courant Number mean: 0.120102 max: 0.28961
smoothSolver:  Solving for Uy, Initial residual = 0.00372294, Final residual = 1.56017e-07, No Iterations 2
smoothSolver:  Solving for Uz, Initial residual = 0.00386507, Final residual = 7.21386e-06, No Iterations 1
DICPCG:  Solving for p, Initial residual = 0.0108228, Final residual = 0.000529364, No Iterations 11
time step continuity errors : sum local = 1.3126e-09, global = -2.08406e-19, cumulative = -2.96962e-17
DICPCG:  Solving for p, Initial residual = 0.000977507, Final residual = 8.3773e-07, No Iterations 48
time step continuity errors : sum local = 2.11005e-12, global = 8.31344e-19, cumulative = -2.88648e-17
ExecutionTime = 0.25 s  ClockTime = 0 s

Time = 0.092s

Courant Number mean: 0.120103 max: 0.289611
smoothSolver:  Solving for Uy, Initial residual = 0.00368723, Final residual = 1.51631e-07, No Iterations 2
smoothSolver:  Solving for Uz, Initial residual = 0.00381973, Final residual = 7.10219e-06, No Iterations 1
DICPCG:  Solving for p, Initial residual = 0.0117028, Final residual = 0.000581185, No Iterations 15
time step continuity errors : sum local = 1.49497e-09, global = 1.87111e-19, cumulative = -2.86777e-17
DICPCG:  Solving for p, Initial residual = 0.00111452, Final residual = 7.61321e-07, No Iterations 50
time step continuity errors : sum local = 1.91603e-12, global = 5.5242e-19, cumulative = -2.81253e-17
ExecutionTime = 0.25 s  ClockTime = 0 s

Time = 0.093s

Courant Number mean: 0.120104 max: 0.289612
smoothSolver:  Solving for Uy, Initial residual = 0.00365294, Final residual = 1.4718e-07, No Iterations 2
smoothSolver:  Solving for Uz, Initial residual = 0.00377751, Final residual = 6.99906e-06, No Iterations 1
DICPCG:  Solving for p, Initial residual = 0.0123908, Final residual = 0.000564397, No Iterations 18
time step continuity errors : sum local = 1.57762e-09, global = -5.30087e-19, cumulative = -2.86554e-17
DICPCG:  Solving for p, Initial residual = 0.00112186, Final residual = 8.68557e-07, No Iterations 49
time step continuity errors : sum local = 2.2031e-12, global = 5.02461e-19, cumulative = -2.81529e-17
ExecutionTime = 0.25 s  ClockTime = 0 s

Time = 0.094s

Courant Number mean: 0.120105 max: 0.289614
smoothSolver:  Solving for Uy, Initial residual = 0.00362328, Final residual = 1.43475e-07, No Iterations 2
smoothSolver:  Solving for Uz, Initial residual = 0.00374134, Final residual = 6.91473e-06, No Iterations 1
DICPCG:  Solving for p, Initial residual = 0.0140596, Final residual = 0.000685567, No Iterations 20
time step continuity errors : sum local = 2.11164e-09, global = -7.61979e-19, cumulative = -2.89149e-17
DICPCG:  Solving for p, Initial residual = 0.00125169, Final residual = 9.45048e-07, No Iterations 48
time step continuity errors : sum local = 2.36851e-12, global = -1.44756e-18, cumulative = -3.03624e-17
ExecutionTime = 0.265625 s  ClockTime = 0 s

Time = 0.095s

Courant Number mean: 0.120106 max: 0.289615
smoothSolver:  Solving for Uy, Initial residual = 0.00360904, Final residual = 1.40684e-07, No Iterations 2
smoothSolver:  Solving for Uz, Initial residual = 0.00371973, Final residual = 6.89044e-06, No Iterations 1
DICPCG:  Solving for p, Initial residual = 0.0139873, Final residual = 0.000452131, No Iterations 42
time step continuity errors : sum local = 1.13611e-09, global = -1.16699e-19, cumulative = -3.04791e-17
DICPCG:  Solving for p, Initial residual = 0.001107, Final residual = 9.03346e-07, No Iterations 37
time step continuity errors : sum local = 2.71829e-12, global = 5.38283e-19, cumulative = -2.99409e-17
ExecutionTime = 0.265625 s  ClockTime = 0 s

Time = 0.096s

Courant Number mean: 0.120107 max: 0.289616
smoothSolver:  Solving for Uy, Initial residual = 0.00356278, Final residual = 1.34304e-07, No Iterations 2
smoothSolver:  Solving for Uz, Initial residual = 0.00364051, Final residual = 6.66045e-06, No Iterations 1
DICPCG:  Solving for p, Initial residual = 0.0131278, Final residual = 0.000493415, No Iterations 42
time step continuity errors : sum local = 1.23093e-09, global = 5.30174e-19, cumulative = -2.94107e-17
DICPCG:  Solving for p, Initial residual = 0.00105593, Final residual = 9.8928e-07, No Iterations 50
time step continuity errors : sum local = 2.46693e-12, global = 2.70777e-19, cumulative = -2.91399e-17
ExecutionTime = 0.265625 s  ClockTime = 0 s

Time = 0.097s

Courant Number mean: 0.120108 max: 0.289617
smoothSolver:  Solving for Uy, Initial residual = 0.00353125, Final residual = 1.27741e-07, No Iterations 2
smoothSolver:  Solving for Uz, Initial residual = 0.00356536, Final residual = 6.48728e-06, No Iterations 1
DICPCG:  Solving for p, Initial residual = 0.0118674, Final residual = 0.000530091, No Iterations 9
time step continuity errors : sum local = 1.33304e-09, global = 9.40818e-19, cumulative = -2.81991e-17
DICPCG:  Solving for p, Initial residual = 0.000971716, Final residual = 7.16348e-07, No Iterations 49
time step continuity errors : sum local = 1.80036e-12, global = 5.09242e-19, cumulative = -2.76899e-17
ExecutionTime = 0.265625 s  ClockTime = 0 s

Time = 0.098s

Courant Number mean: 0.120108 max: 0.289617
smoothSolver:  Solving for Uy, Initial residual = 0.00350346, Final residual = 1.23111e-07, No Iterations 2
smoothSolver:  Solving for Uz, Initial residual = 0.00352311, Final residual = 6.38188e-06, No Iterations 1
DICPCG:  Solving for p, Initial residual = 0.0124895, Final residual = 0.000609679, No Iterations 21
time step continuity errors : sum local = 1.77668e-09, global = -2.15882e-19, cumulative = -2.79057e-17
DICPCG:  Solving for p, Initial residual = 0.00108908, Final residual = 8.72769e-07, No Iterations 50
time step continuity errors : sum local = 2.1767e-12, global = -5.15259e-19, cumulative = -2.8421e-17
ExecutionTime = 0.265625 s  ClockTime = 0 s

Time = 0.099s

Courant Number mean: 0.120109 max: 0.289618
smoothSolver:  Solving for Uy, Initial residual = 0.0034801, Final residual = 1.18512e-07, No Iterations 2
smoothSolver:  Solving for Uz, Initial residual = 0.00347282, Final residual = 6.27836e-06, No Iterations 1
DICPCG:  Solving for p, Initial residual = 0.0117234, Final residual = 0.000561721, No Iterations 19
time step continuity errors : sum local = 1.63905e-09, global = 4.49702e-19, cumulative = -2.79713e-17
DICPCG:  Solving for p, Initial residual = 0.00100552, Final residual = 6.87889e-07, No Iterations 50
time step continuity errors : sum local = 1.72281e-12, global = -5.06661e-19, cumulative = -2.8478e-17
ExecutionTime = 0.265625 s  ClockTime = 0 s

Time = 0.1s

Courant Number mean: 0.12011 max: 0.289618
smoothSolver:  Solving for Uy, Initial residual = 0.00344735, Final residual = 1.13914e-07, No Iterations 2
smoothSolver:  Solving for Uz, Initial residual = 0.00344204, Final residual = 6.17642e-06, No Iterations 1
DICPCG:  Solving for p, Initial residual = 0.0121959, Final residual = 0.000571948, No Iterations 18
time step continuity errors : sum local = 1.57389e-09, global = -3.07228e-19, cumulative = -2.87852e-17
DICPCG:  Solving for p, Initial residual = 0.00109781, Final residual = 6.91531e-07, No Iterations 49
time step continuity errors : sum local = 1.7455e-12, global = -7.55922e-19, cumulative = -2.95411e-17
ExecutionTime = 0.28125 s  ClockTime = 0 s

Time = 0.101s

Courant Number mean: 0.120111 max: 0.289619
smoothSolver:  Solving for Uy, Initial residual = 0.00341458, Final residual = 1.10651e-07, No Iterations 2
smoothSolver:  Solving for Uz, Initial residual = 0.00340787, Final residual = 6.07789e-06, No Iterations 1
DICPCG:  Solving for p, Initial residual = 0.0116137, Final residual = 0.00055571, No Iterations 16
time step continuity errors : sum local = 1.49107e-09, global = -6.74952e-19, cumulative = -3.02161e-17
DICPCG:  Solving for p, Initial residual = 0.00101576, Final residual = 8.10799e-07, No Iterations 50
time step continuity errors : sum local = 2.03181e-12, global = -4.16064e-19, cumulative = -3.06321e-17
ExecutionTime = 0.28125 s  ClockTime = 0 s

Time = 0.102s

Courant Number mean: 0.120112 max: 0.28962
smoothSolver:  Solving for Uy, Initial residual = 0.00338128, Final residual = 1.08585e-07, No Iterations 2
smoothSolver:  Solving for Uz, Initial residual = 0.0033724, Final residual = 5.98429e-06, No Iterations 1
DICPCG:  Solving for p, Initial residual = 0.0109123, Final residual = 0.000524889, No Iterations 18
time step continuity errors : sum local = 1.40106e-09, global = -5.0459e-20, cumulative = -3.06826e-17
DICPCG:  Solving for p, Initial residual = 0.0009415, Final residual = 7.4368e-07, No Iterations 49
time step continuity errors : sum local = 1.87039e-12, global = 9.33591e-20, cumulative = -3.05892e-17
ExecutionTime = 0.28125 s  ClockTime = 0 s

Time = 0.103s

Courant Number mean: 0.120112 max: 0.28962
smoothSolver:  Solving for Uy, Initial residual = 0.00335601, Final residual = 1.06558e-07, No Iterations 2
smoothSolver:  Solving for Uz, Initial residual = 0.00333714, Final residual = 5.89319e-06, No Iterations 1
DICPCG:  Solving for p, Initial residual = 0.0112584, Final residual = 0.000556033, No Iterations 17
time step continuity errors : sum local = 1.53453e-09, global = 8.41096e-19, cumulative = -2.97481e-17
DICPCG:  Solving for p, Initial residual = 0.00096871, Final residual = 9.3723e-07, No Iterations 49
time step continuity errors : sum local = 2.36642e-12, global = 8.7449e-19, cumulative = -2.88736e-17
ExecutionTime = 0.296875 s  ClockTime = 0 s

Time = 0.104s

Courant Number mean: 0.120113 max: 0.289621
smoothSolver:  Solving for Uy, Initial residual = 0.00333877, Final residual = 1.04458e-07, No Iterations 2
smoothSolver:  Solving for Uz, Initial residual = 0.003304, Final residual = 5.81355e-06, No Iterations 1
DICPCG:  Solving for p, Initial residual = 0.0122271, Final residual = 0.000523099, No Iterations 18
time step continuity errors : sum local = 1.56537e-09, global = 2.47031e-19, cumulative = -2.86266e-17
DICPCG:  Solving for p, Initial residual = 0.0010045, Final residual = 7.21176e-07, No Iterations 49
time step continuity errors : sum local = 1.82949e-12, global = -4.35931e-19, cumulative = -2.90625e-17
ExecutionTime = 0.296875 s  ClockTime = 0 s

Time = 0.105s

Courant Number mean: 0.120114 max: 0.289622
smoothSolver:  Solving for Uy, Initial residual = 0.00331973, Final residual = 1.02729e-07, No Iterations 2
smoothSolver:  Solving for Uz, Initial residual = 0.00327624, Final residual = 5.75302e-06, No Iterations 1
DICPCG:  Solving for p, Initial residual = 0.011676, Final residual = 0.000518735, No Iterations 8
time step continuity errors : sum local = 1.3281e-09, global = 1.35319e-19, cumulative = -2.89272e-17
DICPCG:  Solving for p, Initial residual = 0.00099485, Final residual = 7.58588e-07, No Iterations 48
time step continuity errors : sum local = 1.94292e-12, global = 5.09671e-19, cumulative = -2.84175e-17
ExecutionTime = 0.296875 s  ClockTime = 0 s

Time = 0.106s

Courant Number mean: 0.120115 max: 0.289622
smoothSolver:  Solving for Uy, Initial residual = 0.00329857, Final residual = 1.00597e-07, No Iterations 2
smoothSolver:  Solving for Uz, Initial residual = 0.00324059, Final residual = 5.66852e-06, No Iterations 1
DICPCG:  Solving for p, Initial residual = 0.011878, Final residual = 0.000561497, No Iterations 17
time step continuity errors : sum local = 1.61249e-09, global = 5.59113e-19, cumulative = -2.78584e-17
DICPCG:  Solving for p, Initial residual = 0.00105776, Final residual = 7.91674e-07, No Iterations 49
time step continuity errors : sum local = 2.0426e-12, global = 7.24801e-19, cumulative = -2.71336e-17
ExecutionTime = 0.296875 s  ClockTime = 0 s

Time = 0.107s

Courant Number mean: 0.120116 max: 0.289623
smoothSolver:  Solving for Uy, Initial residual = 0.00328037, Final residual = 9.83936e-08, No Iterations 2
smoothSolver:  Solving for Uz, Initial residual = 0.00321212, Final residual = 5.60621e-06, No Iterations 1
DICPCG:  Solving for p, Initial residual = 0.0132682, Final residual = 0.00062915, No Iterations 19
time step continuity errors : sum local = 1.9428e-09, global = -1.13068e-18, cumulative = -2.82643e-17
DICPCG:  Solving for p, Initial residual = 0.00117616, Final residual = 5.53668e-07, No Iterations 51
time step continuity errors : sum local = 1.43204e-12, global = -3.89221e-19, cumulative = -2.86535e-17
ExecutionTime = 0.296875 s  ClockTime = 0 s

Time = 0.108s

Courant Number mean: 0.120117 max: 0.289624
smoothSolver:  Solving for Uy, Initial residual = 0.00326358, Final residual = 9.64543e-08, No Iterations 2
smoothSolver:  Solving for Uz, Initial residual = 0.00319196, Final residual = 5.5723e-06, No Iterations 1
DICPCG:  Solving for p, Initial residual = 0.0143441, Final residual = 0.000710092, No Iterations 40
time step continuity errors : sum local = 1.83133e-09, global = -1.36498e-18, cumulative = -3.00185e-17
DICPCG:  Solving for p, Initial residual = 0.00122973, Final residual = 8.67878e-07, No Iterations 52
time step continuity errors : sum local = 2.24795e-12, global = 3.74854e-19, cumulative = -2.96437e-17
ExecutionTime = 0.296875 s  ClockTime = 0 s

Time = 0.109s

Courant Number mean: 0.120118 max: 0.289625
smoothSolver:  Solving for Uy, Initial residual = 0.00326149, Final residual = 9.55439e-08, No Iterations 2
smoothSolver:  Solving for Uz, Initial residual = 0.00318636, Final residual = 5.60085e-06, No Iterations 1
DICPCG:  Solving for p, Initial residual = 0.0135449, Final residual = 0.000627327, No Iterations 41
[...]
DICPCG:  Solving for p, Initial residual = 4.00458e-05, Final residual = 8.48008e-07, No Iterations 43
time step continuity errors : sum local = 2.30082e-12, global = -7.58597e-19, cumulative = -2.716e-16
ExecutionTime = 2.04688 s  ClockTime = 2 s

Time = 0.974s

Courant Number mean: 0.120586 max: 0.289602
smoothSolver:  Solving for Uy, Initial residual = 0.000348576, Final residual = 7.96574e-07, No Iterations 1
smoothSolver:  Solving for Uz, Initial residual = 3.62924e-05, Final residual = 6.76368e-08, No Iterations 1
DICPCG:  Solving for p, Initial residual = 0.00101786, Final residual = 2.34311e-05, No Iterations 5
time step continuity errors : sum local = 6.53574e-11, global = 2.17317e-19, cumulative = -2.71382e-16
DICPCG:  Solving for p, Initial residual = 3.99341e-05, Final residual = 8.80272e-07, No Iterations 43
time step continuity errors : sum local = 2.38879e-12, global = -4.68926e-20, cumulative = -2.71429e-16
ExecutionTime = 2.04688 s  ClockTime = 2 s

Time = 0.975s

Courant Number mean: 0.120586 max: 0.289602
smoothSolver:  Solving for Uy, Initial residual = 0.00034759, Final residual = 7.96793e-07, No Iterations 1
smoothSolver:  Solving for Uz, Initial residual = 3.62617e-05, Final residual = 6.77262e-08, No Iterations 1
DICPCG:  Solving for p, Initial residual = 0.00100985, Final residual = 2.33527e-05, No Iterations 5
time step continuity errors : sum local = 6.51411e-11, global = -5.52747e-19, cumulative = -2.71982e-16
DICPCG:  Solving for p, Initial residual = 3.97962e-05, Final residual = 8.03866e-07, No Iterations 43
time step continuity errors : sum local = 2.18019e-12, global = -3.54654e-19, cumulative = -2.72337e-16
ExecutionTime = 2.04688 s  ClockTime = 2 s

Time = 0.976s

Courant Number mean: 0.120586 max: 0.289602
smoothSolver:  Solving for Uy, Initial residual = 0.000346562, Final residual = 7.97066e-07, No Iterations 1
smoothSolver:  Solving for Uz, Initial residual = 3.62227e-05, Final residual = 6.78102e-08, No Iterations 1
DICPCG:  Solving for p, Initial residual = 0.00101039, Final residual = 2.35534e-05, No Iterations 5
time step continuity errors : sum local = 6.5679e-11, global = -7.68991e-19, cumulative = -2.73106e-16
DICPCG:  Solving for p, Initial residual = 3.99252e-05, Final residual = 7.40671e-07, No Iterations 43
time step continuity errors : sum local = 2.0157e-12, global = 4.60553e-19, cumulative = -2.72645e-16
ExecutionTime = 2.04688 s  ClockTime = 2 s

Time = 0.977s

Courant Number mean: 0.120586 max: 0.289602
smoothSolver:  Solving for Uy, Initial residual = 0.000345569, Final residual = 7.97236e-07, No Iterations 1
smoothSolver:  Solving for Uz, Initial residual = 3.61827e-05, Final residual = 6.7901e-08, No Iterations 1
DICPCG:  Solving for p, Initial residual = 0.00101497, Final residual = 2.38769e-05, No Iterations 5
time step continuity errors : sum local = 6.65518e-11, global = -6.58992e-19, cumulative = -2.73304e-16
DICPCG:  Solving for p, Initial residual = 4.0361e-05, Final residual = 7.1092e-07, No Iterations 43
time step continuity errors : sum local = 1.94365e-12, global = 3.69563e-19, cumulative = -2.72935e-16
ExecutionTime = 2.04688 s  ClockTime = 2 s

Time = 0.978s

Courant Number mean: 0.120586 max: 0.289602
smoothSolver:  Solving for Uy, Initial residual = 0.000344553, Final residual = 7.97321e-07, No Iterations 1
smoothSolver:  Solving for Uz, Initial residual = 3.61395e-05, Final residual = 6.79769e-08, No Iterations 1
DICPCG:  Solving for p, Initial residual = 0.00101857, Final residual = 5.09174e-05, No Iterations 4
time step continuity errors : sum local = 1.40256e-10, global = -1.07835e-19, cumulative = -2.73042e-16
DICPCG:  Solving for p, Initial residual = 6.21841e-05, Final residual = 7.43383e-07, No Iterations 44
time step continuity errors : sum local = 2.02208e-12, global = -9.54398e-19, cumulative = -2.73997e-16
ExecutionTime = 2.04688 s  ClockTime = 2 s

Time = 0.979s

Courant Number mean: 0.120586 max: 0.289601
smoothSolver:  Solving for Uy, Initial residual = 0.000343502, Final residual = 7.97322e-07, No Iterations 1
smoothSolver:  Solving for Uz, Initial residual = 3.60852e-05, Final residual = 6.80354e-08, No Iterations 1
DICPCG:  Solving for p, Initial residual = 0.00101521, Final residual = 5.04333e-05, No Iterations 4
time step continuity errors : sum local = 1.38967e-10, global = 6.3583e-19, cumulative = -2.73361e-16
DICPCG:  Solving for p, Initial residual = 6.17999e-05, Final residual = 7.92254e-07, No Iterations 44
time step continuity errors : sum local = 2.15969e-12, global = 1.15647e-19, cumulative = -2.73245e-16
ExecutionTime = 2.04688 s  ClockTime = 2 s

Time = 0.98s

Courant Number mean: 0.120586 max: 0.289601
smoothSolver:  Solving for Uy, Initial residual = 0.000342425, Final residual = 7.97382e-07, No Iterations 1
smoothSolver:  Solving for Uz, Initial residual = 3.60182e-05, Final residual = 6.80845e-08, No Iterations 1
DICPCG:  Solving for p, Initial residual = 0.00100373, Final residual = 2.34056e-05, No Iterations 5
time step continuity errors : sum local = 6.52648e-11, global = -2.73045e-19, cumulative = -2.73518e-16
DICPCG:  Solving for p, Initial residual = 3.95707e-05, Final residual = 7.66059e-07, No Iterations 43
time step continuity errors : sum local = 2.0803e-12, global = -3.95297e-19, cumulative = -2.73914e-16
ExecutionTime = 2.0625 s  ClockTime = 2 s

Time = 0.981s

Courant Number mean: 0.120586 max: 0.289601
smoothSolver:  Solving for Uy, Initial residual = 0.000341408, Final residual = 7.97531e-07, No Iterations 1
smoothSolver:  Solving for Uz, Initial residual = 3.59512e-05, Final residual = 6.81405e-08, No Iterations 1
DICPCG:  Solving for p, Initial residual = 0.001004, Final residual = 2.35012e-05, No Iterations 5
time step continuity errors : sum local = 6.55199e-11, global = 2.04567e-19, cumulative = -2.73709e-16
DICPCG:  Solving for p, Initial residual = 3.96296e-05, Final residual = 7.51696e-07, No Iterations 43
time step continuity errors : sum local = 2.04415e-12, global = 9.17702e-20, cumulative = -2.73617e-16
ExecutionTime = 2.0625 s  ClockTime = 2 s

Time = 0.982s

Courant Number mean: 0.120586 max: 0.289601
smoothSolver:  Solving for Uy, Initial residual = 0.000340446, Final residual = 7.97541e-07, No Iterations 1
smoothSolver:  Solving for Uz, Initial residual = 3.58793e-05, Final residual = 6.82051e-08, No Iterations 1
DICPCG:  Solving for p, Initial residual = 0.00100687, Final residual = 2.41368e-05, No Iterations 5
time step continuity errors : sum local = 6.72669e-11, global = -6.36465e-19, cumulative = -2.74254e-16
DICPCG:  Solving for p, Initial residual = 4.02745e-05, Final residual = 7.66384e-07, No Iterations 43
time step continuity errors : sum local = 2.10258e-12, global = -3.74755e-19, cumulative = -2.74628e-16
ExecutionTime = 2.0625 s  ClockTime = 2 s

Time = 0.983s

Courant Number mean: 0.120586 max: 0.289601
smoothSolver:  Solving for Uy, Initial residual = 0.000339465, Final residual = 7.97658e-07, No Iterations 1
smoothSolver:  Solving for Uz, Initial residual = 3.58127e-05, Final residual = 6.83042e-08, No Iterations 1
DICPCG:  Solving for p, Initial residual = 0.00100189, Final residual = 2.42364e-05, No Iterations 5
time step continuity errors : sum local = 6.75461e-11, global = -2.33655e-19, cumulative = -2.74862e-16
DICPCG:  Solving for p, Initial residual = 4.02478e-05, Final residual = 7.91676e-07, No Iterations 43
time step continuity errors : sum local = 2.17311e-12, global = 5.03034e-19, cumulative = -2.74359e-16
ExecutionTime = 2.0625 s  ClockTime = 2 s

Time = 0.984s

Courant Number mean: 0.120586 max: 0.289601
smoothSolver:  Solving for Uy, Initial residual = 0.000338457, Final residual = 7.97857e-07, No Iterations 1
smoothSolver:  Solving for Uz, Initial residual = 3.57489e-05, Final residual = 6.84162e-08, No Iterations 1
DICPCG:  Solving for p, Initial residual = 0.000988773, Final residual = 2.33968e-05, No Iterations 5
time step continuity errors : sum local = 6.52658e-11, global = -8.67974e-19, cumulative = -2.75227e-16
DICPCG:  Solving for p, Initial residual = 3.8875e-05, Final residual = 7.05054e-07, No Iterations 43
time step continuity errors : sum local = 1.92762e-12, global = -7.64394e-19, cumulative = -2.75991e-16
ExecutionTime = 2.0625 s  ClockTime = 2 s

Time = 0.985s

Courant Number mean: 0.120587 max: 0.289601
smoothSolver:  Solving for Uy, Initial residual = 0.000337471, Final residual = 7.98046e-07, No Iterations 1
smoothSolver:  Solving for Uz, Initial residual = 3.56905e-05, Final residual = 6.85349e-08, No Iterations 1
DICPCG:  Solving for p, Initial residual = 0.000992419, Final residual = 4.89632e-05, No Iterations 4
time step continuity errors : sum local = 1.35059e-10, global = -6.73553e-19, cumulative = -2.76665e-16
DICPCG:  Solving for p, Initial residual = 6.00269e-05, Final residual = 7.72358e-07, No Iterations 44
time step continuity errors : sum local = 2.10694e-12, global = -2.63234e-19, cumulative = -2.76928e-16
ExecutionTime = 2.0625 s  ClockTime = 2 s

Time = 0.986s

Courant Number mean: 0.120587 max: 0.289601
smoothSolver:  Solving for Uy, Initial residual = 0.000336496, Final residual = 7.98021e-07, No Iterations 1
smoothSolver:  Solving for Uz, Initial residual = 3.56488e-05, Final residual = 6.86665e-08, No Iterations 1
DICPCG:  Solving for p, Initial residual = 0.00102493, Final residual = 4.96242e-05, No Iterations 4
time step continuity errors : sum local = 1.3692e-10, global = 3.49183e-19, cumulative = -2.76579e-16
DICPCG:  Solving for p, Initial residual = 6.29999e-05, Final residual = 7.7627e-07, No Iterations 44
time step continuity errors : sum local = 2.12352e-12, global = -1.41704e-18, cumulative = -2.77996e-16
ExecutionTime = 2.0625 s  ClockTime = 2 s

Time = 0.987s

Courant Number mean: 0.120587 max: 0.289601
smoothSolver:  Solving for Uy, Initial residual = 0.00033549, Final residual = 7.98291e-07, No Iterations 1
smoothSolver:  Solving for Uz, Initial residual = 3.56016e-05, Final residual = 6.88312e-08, No Iterations 1
DICPCG:  Solving for p, Initial residual = 0.000979461, Final residual = 4.87909e-05, No Iterations 4
time step continuity errors : sum local = 1.34595e-10, global = -9.97319e-19, cumulative = -2.78993e-16
DICPCG:  Solving for p, Initial residual = 5.94062e-05, Final residual = 7.16148e-07, No Iterations 44
time step continuity errors : sum local = 1.94417e-12, global = -5.76763e-19, cumulative = -2.7957e-16
ExecutionTime = 2.0625 s  ClockTime = 2 s

Time = 0.988s

Courant Number mean: 0.120587 max: 0.2896
smoothSolver:  Solving for Uy, Initial residual = 0.000334448, Final residual = 7.9832e-07, No Iterations 1
smoothSolver:  Solving for Uz, Initial residual = 3.55613e-05, Final residual = 6.89887e-08, No Iterations 1
DICPCG:  Solving for p, Initial residual = 0.000971363, Final residual = 2.20077e-05, No Iterations 5
time step continuity errors : sum local = 6.14554e-11, global = -1.11638e-18, cumulative = -2.80687e-16
DICPCG:  Solving for p, Initial residual = 3.77157e-05, Final residual = 8.50248e-07, No Iterations 27
time step continuity errors : sum local = 2.6651e-12, global = -5.57808e-19, cumulative = -2.81244e-16
ExecutionTime = 2.0625 s  ClockTime = 2 s

Time = 0.989s

Courant Number mean: 0.120587 max: 0.2896
smoothSolver:  Solving for Uy, Initial residual = 0.000333458, Final residual = 7.98353e-07, No Iterations 1
smoothSolver:  Solving for Uz, Initial residual = 3.552e-05, Final residual = 6.91226e-08, No Iterations 1
DICPCG:  Solving for p, Initial residual = 0.000968613, Final residual = 2.20382e-05, No Iterations 5
time step continuity errors : sum local = 6.20987e-11, global = -1.03975e-18, cumulative = -2.82284e-16
DICPCG:  Solving for p, Initial residual = 3.77049e-05, Final residual = 9.77952e-07, No Iterations 41
time step continuity errors : sum local = 2.67536e-12, global = 4.85605e-19, cumulative = -2.81799e-16
ExecutionTime = 2.07812 s  ClockTime = 2 s

Time = 0.99s

Courant Number mean: 0.120587 max: 0.2896
smoothSolver:  Solving for Uy, Initial residual = 0.000332447, Final residual = 7.98325e-07, No Iterations 1
smoothSolver:  Solving for Uz, Initial residual = 3.54676e-05, Final residual = 6.92454e-08, No Iterations 1
DICPCG:  Solving for p, Initial residual = 0.000965332, Final residual = 2.20567e-05, No Iterations 5
time step continuity errors : sum local = 6.14119e-11, global = 1.77289e-19, cumulative = -2.81621e-16
DICPCG:  Solving for p, Initial residual = 3.76978e-05, Final residual = 8.26588e-07, No Iterations 26
time step continuity errors : sum local = 2.3631e-12, global = 1.54035e-19, cumulative = -2.81467e-16
ExecutionTime = 2.07812 s  ClockTime = 2 s

Time = 0.991s

Courant Number mean: 0.120587 max: 0.2896
smoothSolver:  Solving for Uy, Initial residual = 0.000331401, Final residual = 7.98281e-07, No Iterations 1
smoothSolver:  Solving for Uz, Initial residual = 3.5405e-05, Final residual = 6.93541e-08, No Iterations 1
DICPCG:  Solving for p, Initial residual = 0.000962474, Final residual = 2.19901e-05, No Iterations 5
time step continuity errors : sum local = 6.15883e-11, global = -1.86974e-19, cumulative = -2.81654e-16
DICPCG:  Solving for p, Initial residual = 3.76374e-05, Final residual = 7.75699e-07, No Iterations 27
time step continuity errors : sum local = 2.51496e-12, global = -3.01331e-19, cumulative = -2.81956e-16
ExecutionTime = 2.07812 s  ClockTime = 2 s

Time = 0.992s

Courant Number mean: 0.120587 max: 0.2896
smoothSolver:  Solving for Uy, Initial residual = 0.000330353, Final residual = 7.98227e-07, No Iterations 1
smoothSolver:  Solving for Uz, Initial residual = 3.53335e-05, Final residual = 6.94791e-08, No Iterations 1
DICPCG:  Solving for p, Initial residual = 0.000962781, Final residual = 2.20524e-05, No Iterations 5
time step continuity errors : sum local = 6.21747e-11, global = 7.57012e-19, cumulative = -2.81198e-16
DICPCG:  Solving for p, Initial residual = 3.76462e-05, Final residual = 6.98262e-07, No Iterations 43
time step continuity errors : sum local = 1.90873e-12, global = 5.91007e-19, cumulative = -2.80607e-16
ExecutionTime = 2.07812 s  ClockTime = 2 s

Time = 0.993s

Courant Number mean: 0.120587 max: 0.2896
smoothSolver:  Solving for Uy, Initial residual = 0.000329274, Final residual = 7.97945e-07, No Iterations 1
smoothSolver:  Solving for Uz, Initial residual = 3.52686e-05, Final residual = 6.96118e-08, No Iterations 1
DICPCG:  Solving for p, Initial residual = 0.000959088, Final residual = 2.50118e-05, No Iterations 5
time step continuity errors : sum local = 6.92472e-11, global = -5.89991e-19, cumulative = -2.81197e-16
DICPCG:  Solving for p, Initial residual = 3.99714e-05, Final residual = 8.27323e-07, No Iterations 44
time step continuity errors : sum local = 2.25858e-12, global = 1.72211e-19, cumulative = -2.81025e-16
ExecutionTime = 2.07812 s  ClockTime = 2 s

Time = 0.994s

Courant Number mean: 0.120587 max: 0.2896
smoothSolver:  Solving for Uy, Initial residual = 0.000328142, Final residual = 7.97449e-07, No Iterations 1
smoothSolver:  Solving for Uz, Initial residual = 3.52113e-05, Final residual = 6.97634e-08, No Iterations 1
DICPCG:  Solving for p, Initial residual = 0.000956909, Final residual = 2.51599e-05, No Iterations 5
time step continuity errors : sum local = 6.98867e-11, global = 6.46447e-19, cumulative = -2.80379e-16
DICPCG:  Solving for p, Initial residual = 4.02267e-05, Final residual = 8.2828e-07, No Iterations 44
time step continuity errors : sum local = 2.26184e-12, global = -1.27509e-18, cumulative = -2.81654e-16
ExecutionTime = 2.07812 s  ClockTime = 2 s

Time = 0.995s

Courant Number mean: 0.120587 max: 0.2896
smoothSolver:  Solving for Uy, Initial residual = 0.000326979, Final residual = 7.96836e-07, No Iterations 1
smoothSolver:  Solving for Uz, Initial residual = 3.5157e-05, Final residual = 6.99111e-08, No Iterations 1
DICPCG:  Solving for p, Initial residual = 0.000949956, Final residual = 2.40855e-05, No Iterations 5
time step continuity errors : sum local = 6.70237e-11, global = 2.54785e-21, cumulative = -2.81651e-16
DICPCG:  Solving for p, Initial residual = 3.92852e-05, Final residual = 9.96379e-07, No Iterations 43
time step continuity errors : sum local = 2.74177e-12, global = 4.82812e-19, cumulative = -2.81169e-16
ExecutionTime = 2.07812 s  ClockTime = 2 s

Time = 0.996s

Courant Number mean: 0.120587 max: 0.2896
smoothSolver:  Solving for Uy, Initial residual = 0.000325764, Final residual = 7.96347e-07, No Iterations 1
smoothSolver:  Solving for Uz, Initial residual = 3.51011e-05, Final residual = 7.00703e-08, No Iterations 1
DICPCG:  Solving for p, Initial residual = 0.000946765, Final residual = 2.35059e-05, No Iterations 5
time step continuity errors : sum local = 6.54884e-11, global = 5.00877e-19, cumulative = -2.80668e-16
DICPCG:  Solving for p, Initial residual = 3.8855e-05, Final residual = 8.81186e-07, No Iterations 43
time step continuity errors : sum local = 2.43204e-12, global = 6.77566e-19, cumulative = -2.7999e-16
ExecutionTime = 2.07812 s  ClockTime = 2 s

Time = 0.997s

Courant Number mean: 0.120587 max: 0.289599
smoothSolver:  Solving for Uy, Initial residual = 0.000324623, Final residual = 7.95997e-07, No Iterations 1
smoothSolver:  Solving for Uz, Initial residual = 3.50432e-05, Final residual = 7.02306e-08, No Iterations 1
DICPCG:  Solving for p, Initial residual = 0.000945559, Final residual = 2.31516e-05, No Iterations 5
time step continuity errors : sum local = 6.45734e-11, global = -1.07024e-19, cumulative = -2.80097e-16
DICPCG:  Solving for p, Initial residual = 3.86714e-05, Final residual = 7.9853e-07, No Iterations 31
time step continuity errors : sum local = 2.81232e-12, global = -1.85666e-18, cumulative = -2.81954e-16
ExecutionTime = 2.07812 s  ClockTime = 2 s

Time = 0.998s

Courant Number mean: 0.120587 max: 0.289599
smoothSolver:  Solving for Uy, Initial residual = 0.000323538, Final residual = 7.95651e-07, No Iterations 1
smoothSolver:  Solving for Uz, Initial residual = 3.49841e-05, Final residual = 7.03867e-08, No Iterations 1
DICPCG:  Solving for p, Initial residual = 0.000946689, Final residual = 2.297e-05, No Iterations 5
time step continuity errors : sum local = 6.31147e-11, global = -7.65868e-19, cumulative = -2.8272e-16
DICPCG:  Solving for p, Initial residual = 3.8722e-05, Final residual = 8.47171e-07, No Iterations 43
time step continuity errors : sum local = 2.33616e-12, global = -2.65217e-19, cumulative = -2.82985e-16
ExecutionTime = 2.09375 s  ClockTime = 2 s

Time = 0.999s

Courant Number mean: 0.120587 max: 0.289599
smoothSolver:  Solving for Uy, Initial residual = 0.000322422, Final residual = 7.95309e-07, No Iterations 1
smoothSolver:  Solving for Uz, Initial residual = 3.49283e-05, Final residual = 7.05363e-08, No Iterations 1
DICPCG:  Solving for p, Initial residual = 0.000954198, Final residual = 2.29241e-05, No Iterations 5
time step continuity errors : sum local = 6.44419e-11, global = 2.71417e-19, cumulative = -2.82713e-16
DICPCG:  Solving for p, Initial residual = 3.91175e-05, Final residual = 9.72251e-07, No Iterations 27
time step continuity errors : sum local = 2.66263e-12, global = -7.91287e-19, cumulative = -2.83505e-16
ExecutionTime = 2.09375 s  ClockTime = 2 s

Time = 1s

Courant Number mean: 0.120588 max: 0.289599
smoothSolver:  Solving for Uy, Initial residual = 0.000321277, Final residual = 7.95079e-07, No Iterations 1
smoothSolver:  Solving for Uz, Initial residual = 3.48776e-05, Final residual = 7.06859e-08, No Iterations 1
DICPCG:  Solving for p, Initial residual = 0.00095434, Final residual = 2.34391e-05, No Iterations 5
time step continuity errors : sum local = 6.55222e-11, global = 2.94964e-19, cumulative = -2.8321e-16
DICPCG:  Solving for p, Initial residual = 3.93844e-05, Final residual = 9.19097e-07, No Iterations 29
time step continuity errors : sum local = 2.61399e-12, global = -2.84724e-19, cumulative = -2.83495e-16
ExecutionTime = 2.125 s  ClockTime = 2 s

End

